
---------- Begin Simulation Statistics ----------
final_tick                               170107367688                       # Number of ticks from beginning of simulation (restored from checkpoints and never reset)
host_inst_rate                                 170867                       # Simulator instruction rate (inst/s)
host_mem_usage                                1920676                       # Number of bytes of host memory used
host_op_rate                                   290816                       # Simulator op (including micro ops) rate (op/s)
host_seconds                                 52531.28                       # Real time elapsed on the host
host_tick_rate                                1145203                       # Simulator tick rate (ticks/s)
sim_freq                                 1000000000000                       # Frequency of simulated ticks
sim_insts                                  8975863495                       # Number of instructions simulated
sim_ops                                   15276942073                       # Number of ops (including micro ops) simulated
sim_seconds                                  0.060159                       # Number of seconds simulated
sim_ticks                                 60158960154                       # Number of ticks simulated
system.clk_domain.clock                          1000                       # Clock period in ticks
system.cpu00.apic_clk_domain.clock               5328                       # Clock period in ticks
system.cpu00.branchPred.BTBCorrect                  0                       # Number of correct BTB predictions (this stat may not work properly.
system.cpu00.branchPred.BTBHitPct            0.000000                       # BTB Hit Percentage
system.cpu00.branchPred.BTBHits                     0                       # Number of BTB hits
system.cpu00.branchPred.BTBLookups           61424766                       # Number of BTB lookups
system.cpu00.branchPred.RASInCorrect               54                       # Number of incorrect RAS predictions.
system.cpu00.branchPred.condIncorrect             953                       # Number of conditional branches incorrect
system.cpu00.branchPred.condPredicted        70338128                       # Number of conditional branches predicted
system.cpu00.branchPred.indirectHits         55877735                       # Number of indirect target hits.
system.cpu00.branchPred.indirectLookups      61424766                       # Number of indirect predictor lookups.
system.cpu00.branchPred.indirectMisses        5547031                       # Number of indirect misses.
system.cpu00.branchPred.lookups              70338128                       # Number of BP lookups
system.cpu00.branchPred.usedRAS                   346                       # Number of times the RAS was used to get a target.
system.cpu00.branchPredindirectMispredicted          329                       # Number of mispredicted indirect branches.
system.cpu00.cc_regfile_reads               440281531                       # number of cc regfile reads
system.cpu00.cc_regfile_writes              366722687                       # number of cc regfile writes
system.cpu00.commit.amos                            0                       # Number of atomic instructions committed
system.cpu00.commit.branchMispredicts             980                       # The number of times a branch was mispredicted
system.cpu00.commit.branches                 70334750                       # Number of branches committed
system.cpu00.commit.bw_lim_events            67330761                       # number cycles where commit BW limit reached
system.cpu00.commit.commitNonSpecStalls           482                       # The number of times commit has been forced to stall to communicate backwards
system.cpu00.commit.commitSquashedInsts         27383                       # The number of squashed insts skipped by commit
system.cpu00.commit.committedInsts          536373233                       # Number of instructions committed
system.cpu00.commit.committedOps            907514872                       # Number of ops (including micro ops) committed
system.cpu00.commit.committed_per_cycle::samples    178438580                       # Number of insts commited each cycle
system.cpu00.commit.committed_per_cycle::mean     5.085867                       # Number of insts commited each cycle
system.cpu00.commit.committed_per_cycle::stdev     3.031574                       # Number of insts commited each cycle
system.cpu00.commit.committed_per_cycle::underflows            0      0.00%      0.00% # Number of insts commited each cycle
system.cpu00.commit.committed_per_cycle::0     11407022      6.39%      6.39% # Number of insts commited each cycle
system.cpu00.commit.committed_per_cycle::1     22399419     12.55%     18.95% # Number of insts commited each cycle
system.cpu00.commit.committed_per_cycle::2     28719476     16.09%     35.04% # Number of insts commited each cycle
system.cpu00.commit.committed_per_cycle::3      4673208      2.62%     37.66% # Number of insts commited each cycle
system.cpu00.commit.committed_per_cycle::4      4159544      2.33%     39.99% # Number of insts commited each cycle
system.cpu00.commit.committed_per_cycle::5      5496064      3.08%     43.07% # Number of insts commited each cycle
system.cpu00.commit.committed_per_cycle::6      8879309      4.98%     48.05% # Number of insts commited each cycle
system.cpu00.commit.committed_per_cycle::7     25373777     14.22%     62.27% # Number of insts commited each cycle
system.cpu00.commit.committed_per_cycle::8     67330761     37.73%    100.00% # Number of insts commited each cycle
system.cpu00.commit.committed_per_cycle::overflows            0      0.00%    100.00% # Number of insts commited each cycle
system.cpu00.commit.committed_per_cycle::min_value            0                       # Number of insts commited each cycle
system.cpu00.commit.committed_per_cycle::max_value            8                       # Number of insts commited each cycle
system.cpu00.commit.committed_per_cycle::total    178438580                       # Number of insts commited each cycle
system.cpu00.commit.fp_insts                276825949                       # Number of committed floating point instructions.
system.cpu00.commit.function_calls                215                       # Number of function calls committed.
system.cpu00.commit.int_insts               703789557                       # Number of committed integer instructions.
system.cpu00.commit.loads                    93628555                       # Number of loads committed
system.cpu00.commit.membars                       288                       # Number of memory barriers committed
system.cpu00.commit.op_class_0::No_OpClass      8388882      0.92%      0.92% # Class of committed instruction
system.cpu00.commit.op_class_0::IntAlu      571659969     62.99%     63.92% # Class of committed instruction
system.cpu00.commit.op_class_0::IntMult       7340051      0.81%     64.72% # Class of committed instruction
system.cpu00.commit.op_class_0::IntDiv              7      0.00%     64.72% # Class of committed instruction
system.cpu00.commit.op_class_0::FloatAdd           31      0.00%     64.72% # Class of committed instruction
system.cpu00.commit.op_class_0::FloatCmp            0      0.00%     64.72% # Class of committed instruction
system.cpu00.commit.op_class_0::FloatCvt            0      0.00%     64.72% # Class of committed instruction
system.cpu00.commit.op_class_0::FloatMult            0      0.00%     64.72% # Class of committed instruction
system.cpu00.commit.op_class_0::FloatMultAcc            0      0.00%     64.72% # Class of committed instruction
system.cpu00.commit.op_class_0::FloatDiv            0      0.00%     64.72% # Class of committed instruction
system.cpu00.commit.op_class_0::FloatMisc            0      0.00%     64.72% # Class of committed instruction
system.cpu00.commit.op_class_0::FloatSqrt            0      0.00%     64.72% # Class of committed instruction
system.cpu00.commit.op_class_0::SimdAdd             0      0.00%     64.72% # Class of committed instruction
system.cpu00.commit.op_class_0::SimdAddAcc            0      0.00%     64.72% # Class of committed instruction
system.cpu00.commit.op_class_0::SimdAlu      60817408      6.70%     71.43% # Class of committed instruction
system.cpu00.commit.op_class_0::SimdCmp             0      0.00%     71.43% # Class of committed instruction
system.cpu00.commit.op_class_0::SimdCvt             0      0.00%     71.43% # Class of committed instruction
system.cpu00.commit.op_class_0::SimdMisc     30408915      3.35%     74.78% # Class of committed instruction
system.cpu00.commit.op_class_0::SimdMult            0      0.00%     74.78% # Class of committed instruction
system.cpu00.commit.op_class_0::SimdMultAcc            0      0.00%     74.78% # Class of committed instruction
system.cpu00.commit.op_class_0::SimdShift            0      0.00%     74.78% # Class of committed instruction
system.cpu00.commit.op_class_0::SimdShiftAcc            0      0.00%     74.78% # Class of committed instruction
system.cpu00.commit.op_class_0::SimdDiv             0      0.00%     74.78% # Class of committed instruction
system.cpu00.commit.op_class_0::SimdSqrt            0      0.00%     74.78% # Class of committed instruction
system.cpu00.commit.op_class_0::SimdFloatAdd     51380224      5.66%     80.44% # Class of committed instruction
system.cpu00.commit.op_class_0::SimdFloatAlu            0      0.00%     80.44% # Class of committed instruction
system.cpu00.commit.op_class_0::SimdFloatCmp            0      0.00%     80.44% # Class of committed instruction
system.cpu00.commit.op_class_0::SimdFloatCvt     31457280      3.47%     83.91% # Class of committed instruction
system.cpu00.commit.op_class_0::SimdFloatDiv            0      0.00%     83.91% # Class of committed instruction
system.cpu00.commit.op_class_0::SimdFloatMisc            0      0.00%     83.91% # Class of committed instruction
system.cpu00.commit.op_class_0::SimdFloatMult     51380224      5.66%     89.57% # Class of committed instruction
system.cpu00.commit.op_class_0::SimdFloatMultAcc            0      0.00%     89.57% # Class of committed instruction
system.cpu00.commit.op_class_0::SimdFloatSqrt            0      0.00%     89.57% # Class of committed instruction
system.cpu00.commit.op_class_0::SimdReduceAdd            0      0.00%     89.57% # Class of committed instruction
system.cpu00.commit.op_class_0::SimdReduceAlu            0      0.00%     89.57% # Class of committed instruction
system.cpu00.commit.op_class_0::SimdReduceCmp            0      0.00%     89.57% # Class of committed instruction
system.cpu00.commit.op_class_0::SimdFloatReduceAdd            0      0.00%     89.57% # Class of committed instruction
system.cpu00.commit.op_class_0::SimdFloatReduceCmp            0      0.00%     89.57% # Class of committed instruction
system.cpu00.commit.op_class_0::SimdAes             0      0.00%     89.57% # Class of committed instruction
system.cpu00.commit.op_class_0::SimdAesMix            0      0.00%     89.57% # Class of committed instruction
system.cpu00.commit.op_class_0::SimdSha1Hash            0      0.00%     89.57% # Class of committed instruction
system.cpu00.commit.op_class_0::SimdSha1Hash2            0      0.00%     89.57% # Class of committed instruction
system.cpu00.commit.op_class_0::SimdSha256Hash            0      0.00%     89.57% # Class of committed instruction
system.cpu00.commit.op_class_0::SimdSha256Hash2            0      0.00%     89.57% # Class of committed instruction
system.cpu00.commit.op_class_0::SimdShaSigma2            0      0.00%     89.57% # Class of committed instruction
system.cpu00.commit.op_class_0::SimdShaSigma3            0      0.00%     89.57% # Class of committed instruction
system.cpu00.commit.op_class_0::SimdPredAlu            0      0.00%     89.57% # Class of committed instruction
system.cpu00.commit.op_class_0::MemRead      42248096      4.66%     94.22% # Class of committed instruction
system.cpu00.commit.op_class_0::MemWrite      1051948      0.12%     94.34% # Class of committed instruction
system.cpu00.commit.op_class_0::FloatMemRead     51380459      5.66%    100.00% # Class of committed instruction
system.cpu00.commit.op_class_0::FloatMemWrite         1378      0.00%    100.00% # Class of committed instruction
system.cpu00.commit.op_class_0::IprAccess            0      0.00%    100.00% # Class of committed instruction
system.cpu00.commit.op_class_0::InstPrefetch            0      0.00%    100.00% # Class of committed instruction
system.cpu00.commit.op_class_0::total       907514872                       # Class of committed instruction
system.cpu00.commit.refs                     94681881                       # Number of memory references committed
system.cpu00.commit.swp_count                       0                       # Number of s/w prefetches committed
system.cpu00.commit.vec_insts                       0                       # Number of committed Vector instructions.
system.cpu00.committedInsts                 536373233                       # Number of Instructions Simulated
system.cpu00.committedOps                   907514872                       # Number of Ops (including micro ops) Simulated
system.cpu00.cpi                             0.332740                       # CPI: Cycles Per Instruction
system.cpu00.cpi_total                       0.332740                       # CPI: Total CPI of All Threads
system.cpu00.decode.BlockedCycles             1373137                       # Number of cycles decode is blocked
system.cpu00.decode.DecodedInsts            907554325                       # Number of instructions handled by decode
system.cpu00.decode.IdleCycles               20932817                       # Number of cycles decode is idle
system.cpu00.decode.RunCycles               155937453                       # Number of cycles decode is running
system.cpu00.decode.SquashCycles                 1006                       # Number of cycles decode is squashing
system.cpu00.decode.UnblockCycles              198036                       # Number of cycles decode is unblocking
system.cpu00.dtb.rdAccesses                  93630874                       # TLB accesses on read requests
system.cpu00.dtb.rdMisses                          36                       # TLB misses on read requests
system.cpu00.dtb.walker.pwrStateResidencyTicks::UNDEFINED 170107367688                       # Cumulative time (in ticks) in various power states
system.cpu00.dtb.wrAccesses                   1053594                       # TLB accesses on write requests
system.cpu00.dtb.wrMisses                         299                       # TLB misses on write requests
system.cpu00.fetch.Branches                  70338128                       # Number of branches that fetch encountered
system.cpu00.fetch.CacheLines                20976569                       # Number of cache lines fetched
system.cpu00.fetch.Cycles                   157452540                       # Number of cycles fetch has run and was not squashing or blocked
system.cpu00.fetch.IcacheSquashes                 169                       # Number of outstanding Icache misses that were squashed
system.cpu00.fetch.IcacheWaitRetryStallCycles         1398                       # Number of stall cycles due to full MSHR
system.cpu00.fetch.Insts                    536399652                       # Number of instructions fetch has processed
system.cpu00.fetch.MiscStallCycles                559                       # Number of cycles fetch has spent waiting on interrupts, or bad addresses, or out of MSHRs
system.cpu00.fetch.PendingTrapStallCycles          163                       # Number of stall cycles due to pending traps
system.cpu00.fetch.SquashCycles                  2012                       # Number of cycles fetch has spent squashing
system.cpu00.fetch.branchRate                0.394111                       # Number of branch fetches per cycle
system.cpu00.fetch.icacheStallCycles         20986783                       # Number of cycles fetch is stalled on an Icache miss
system.cpu00.fetch.predictedBranches         55878081                       # Number of branches that fetch has predicted taken
system.cpu00.fetch.rate                      3.005500                       # Number of inst fetches per cycle
system.cpu00.fetch.rateDist::samples        178442449                       # Number of instructions fetched each cycle (Total)
system.cpu00.fetch.rateDist::mean            5.086013                       # Number of instructions fetched each cycle (Total)
system.cpu00.fetch.rateDist::stdev           3.437040                       # Number of instructions fetched each cycle (Total)
system.cpu00.fetch.rateDist::underflows             0      0.00%      0.00% # Number of instructions fetched each cycle (Total)
system.cpu00.fetch.rateDist::0               22107243     12.39%     12.39% # Number of instructions fetched each cycle (Total)
system.cpu00.fetch.rateDist::1               40319326     22.60%     34.98% # Number of instructions fetched each cycle (Total)
system.cpu00.fetch.rateDist::2                1066776      0.60%     35.58% # Number of instructions fetched each cycle (Total)
system.cpu00.fetch.rateDist::3                  27288      0.02%     35.60% # Number of instructions fetched each cycle (Total)
system.cpu00.fetch.rateDist::4               10802680      6.05%     41.65% # Number of instructions fetched each cycle (Total)
system.cpu00.fetch.rateDist::5                  23526      0.01%     41.66% # Number of instructions fetched each cycle (Total)
system.cpu00.fetch.rateDist::6                4738342      2.66%     44.32% # Number of instructions fetched each cycle (Total)
system.cpu00.fetch.rateDist::7                1590616      0.89%     45.21% # Number of instructions fetched each cycle (Total)
system.cpu00.fetch.rateDist::8               97766652     54.79%    100.00% # Number of instructions fetched each cycle (Total)
system.cpu00.fetch.rateDist::overflows              0      0.00%    100.00% # Number of instructions fetched each cycle (Total)
system.cpu00.fetch.rateDist::min_value              0                       # Number of instructions fetched each cycle (Total)
system.cpu00.fetch.rateDist::max_value              8                       # Number of instructions fetched each cycle (Total)
system.cpu00.fetch.rateDist::total          178442449                       # Number of instructions fetched each cycle (Total)
system.cpu00.fp_regfile_reads               523245012                       # number of floating regfile reads
system.cpu00.fp_regfile_writes              274728873                       # number of floating regfile writes
system.cpu00.idleCycles                         30253                       # Total number of cycles that the CPU has spent unscheduled due to idling
system.cpu00.iew.branchMispredicts               1118                       # Number of branch mispredicts detected at execute
system.cpu00.iew.exec_branches               70335195                       # Number of branches executed
system.cpu00.iew.exec_nop                           0                       # number of nop insts executed
system.cpu00.iew.exec_rate                   5.111123                       # Inst execution rate
system.cpu00.iew.exec_refs                   99352446                       # number of memory reference insts executed
system.cpu00.iew.exec_stores                  1053594                       # Number of stores executed
system.cpu00.iew.exec_swp                           0                       # number of swp insts executed
system.cpu00.iew.iewBlockCycles                450545                       # Number of cycles IEW is blocking
system.cpu00.iew.iewDispLoadInsts            93632597                       # Number of dispatched load instructions
system.cpu00.iew.iewDispNonSpecInsts              230                       # Number of dispatched non-speculative instructions
system.cpu00.iew.iewDispSquashedInsts              17                       # Number of squashed instructions skipped by dispatch
system.cpu00.iew.iewDispStoreInsts            1054213                       # Number of dispatched store instructions
system.cpu00.iew.iewDispatchedInsts         907542312                       # Number of instructions dispatched to IQ
system.cpu00.iew.iewExecLoadInsts            98298852                       # Number of load instructions executed
system.cpu00.iew.iewExecSquashedInsts            1810                       # Number of squashed instructions skipped in execute
system.cpu00.iew.iewExecutedInsts           912195962                       # Number of executed instructions
system.cpu00.iew.iewIQFullEvents                13247                       # Number of times the IQ has become full, causing a stall
system.cpu00.iew.iewIdleCycles                      0                       # Number of cycles IEW is idle
system.cpu00.iew.iewLSQFullEvents               19708                       # Number of times the LSQ has become full, causing a stall
system.cpu00.iew.iewSquashCycles                 1006                       # Number of cycles IEW is squashing
system.cpu00.iew.iewUnblockCycles               39331                       # Number of cycles IEW is unblocking
system.cpu00.iew.lsq.thread0.blockedLoads            0                       # Number of blocked loads due to partial load-store forwarding
system.cpu00.iew.lsq.thread0.cacheBlocked      3864456                       # Number of times an access to memory failed due to the cache being blocked
system.cpu00.iew.lsq.thread0.forwLoads            545                       # Number of loads that had data forwarded from stores
system.cpu00.iew.lsq.thread0.ignoredResponses            6                       # Number of memory responses ignored because the instruction is squashed
system.cpu00.iew.lsq.thread0.invAddrLoads            0                       # Number of loads ignored due to an invalid address
system.cpu00.iew.lsq.thread0.invAddrSwpfs            0                       # Number of software prefetches ignored due to an invalid address
system.cpu00.iew.lsq.thread0.memOrderViolation           25                       # Number of memory ordering violations
system.cpu00.iew.lsq.thread0.rescheduledLoads            4                       # Number of loads that were rescheduled
system.cpu00.iew.lsq.thread0.squashedLoads         4042                       # Number of loads squashed
system.cpu00.iew.lsq.thread0.squashedStores          887                       # Number of stores squashed
system.cpu00.iew.memOrderViolationEvents           25                       # Number of memory order violations
system.cpu00.iew.predictedNotTakenIncorrect          511                       # Number of branches that were predicted not taken incorrectly
system.cpu00.iew.predictedTakenIncorrect          607                       # Number of branches that were predicted taken incorrectly
system.cpu00.iew.wb_consumers              1227681862                       # num instructions consuming a value
system.cpu00.iew.wb_count                   907526734                       # cumulative count of insts written-back
system.cpu00.iew.wb_fanout                   0.628231                       # average fanout of values written-back
system.cpu00.iew.wb_producers               771268052                       # num instructions producing a value
system.cpu00.iew.wb_rate                     5.084961                       # insts written-back per cycle
system.cpu00.iew.wb_sent                    907527146                       # cumulative count of insts sent to commit
system.cpu00.int_regfile_reads              963545460                       # number of integer regfile reads
system.cpu00.int_regfile_writes             559010226                       # number of integer regfile writes
system.cpu00.interrupts.pwrStateResidencyTicks::UNDEFINED 170107367688                       # Cumulative time (in ticks) in various power states
system.cpu00.ipc                             3.005352                       # IPC: Instructions Per Cycle
system.cpu00.ipc_total                       3.005352                       # IPC: Total IPC of All Threads
system.cpu00.iq.FU_type_0::No_OpClass         8389592      0.92%      0.92% # Type of FU issued
system.cpu00.iq.FU_type_0::IntAlu           571669751     62.67%     63.59% # Type of FU issued
system.cpu00.iq.FU_type_0::IntMult            7340060      0.80%     64.39% # Type of FU issued
system.cpu00.iq.FU_type_0::IntDiv                   7      0.00%     64.39% # Type of FU issued
system.cpu00.iq.FU_type_0::FloatAdd                45      0.00%     64.39% # Type of FU issued
system.cpu00.iq.FU_type_0::FloatCmp                 0      0.00%     64.39% # Type of FU issued
system.cpu00.iq.FU_type_0::FloatCvt                 0      0.00%     64.39% # Type of FU issued
system.cpu00.iq.FU_type_0::FloatMult                0      0.00%     64.39% # Type of FU issued
system.cpu00.iq.FU_type_0::FloatMultAcc             0      0.00%     64.39% # Type of FU issued
system.cpu00.iq.FU_type_0::FloatDiv                 0      0.00%     64.39% # Type of FU issued
system.cpu00.iq.FU_type_0::FloatMisc                0      0.00%     64.39% # Type of FU issued
system.cpu00.iq.FU_type_0::FloatSqrt                0      0.00%     64.39% # Type of FU issued
system.cpu00.iq.FU_type_0::SimdAdd                  0      0.00%     64.39% # Type of FU issued
system.cpu00.iq.FU_type_0::SimdAddAcc               0      0.00%     64.39% # Type of FU issued
system.cpu00.iq.FU_type_0::SimdAlu           60818768      6.67%     71.06% # Type of FU issued
system.cpu00.iq.FU_type_0::SimdCmp                  0      0.00%     71.06% # Type of FU issued
system.cpu00.iq.FU_type_0::SimdCvt                  0      0.00%     71.06% # Type of FU issued
system.cpu00.iq.FU_type_0::SimdMisc          30408926      3.33%     74.39% # Type of FU issued
system.cpu00.iq.FU_type_0::SimdMult                 0      0.00%     74.39% # Type of FU issued
system.cpu00.iq.FU_type_0::SimdMultAcc              0      0.00%     74.39% # Type of FU issued
system.cpu00.iq.FU_type_0::SimdShift                0      0.00%     74.39% # Type of FU issued
system.cpu00.iq.FU_type_0::SimdShiftAcc             0      0.00%     74.39% # Type of FU issued
system.cpu00.iq.FU_type_0::SimdDiv                  0      0.00%     74.39% # Type of FU issued
system.cpu00.iq.FU_type_0::SimdSqrt                 0      0.00%     74.39% # Type of FU issued
system.cpu00.iq.FU_type_0::SimdFloatAdd      51380238      5.63%     80.03% # Type of FU issued
system.cpu00.iq.FU_type_0::SimdFloatAlu             0      0.00%     80.03% # Type of FU issued
system.cpu00.iq.FU_type_0::SimdFloatCmp             0      0.00%     80.03% # Type of FU issued
system.cpu00.iq.FU_type_0::SimdFloatCvt      31457323      3.45%     83.48% # Type of FU issued
system.cpu00.iq.FU_type_0::SimdFloatDiv             0      0.00%     83.48% # Type of FU issued
system.cpu00.iq.FU_type_0::SimdFloatMisc            0      0.00%     83.48% # Type of FU issued
system.cpu00.iq.FU_type_0::SimdFloatMult     51380239      5.63%     89.11% # Type of FU issued
system.cpu00.iq.FU_type_0::SimdFloatMultAcc            0      0.00%     89.11% # Type of FU issued
system.cpu00.iq.FU_type_0::SimdFloatSqrt            0      0.00%     89.11% # Type of FU issued
system.cpu00.iq.FU_type_0::SimdReduceAdd            0      0.00%     89.11% # Type of FU issued
system.cpu00.iq.FU_type_0::SimdReduceAlu            0      0.00%     89.11% # Type of FU issued
system.cpu00.iq.FU_type_0::SimdReduceCmp            0      0.00%     89.11% # Type of FU issued
system.cpu00.iq.FU_type_0::SimdFloatReduceAdd            0      0.00%     89.11% # Type of FU issued
system.cpu00.iq.FU_type_0::SimdFloatReduceCmp            0      0.00%     89.11% # Type of FU issued
system.cpu00.iq.FU_type_0::SimdAes                  0      0.00%     89.11% # Type of FU issued
system.cpu00.iq.FU_type_0::SimdAesMix               0      0.00%     89.11% # Type of FU issued
system.cpu00.iq.FU_type_0::SimdSha1Hash             0      0.00%     89.11% # Type of FU issued
system.cpu00.iq.FU_type_0::SimdSha1Hash2            0      0.00%     89.11% # Type of FU issued
system.cpu00.iq.FU_type_0::SimdSha256Hash            0      0.00%     89.11% # Type of FU issued
system.cpu00.iq.FU_type_0::SimdSha256Hash2            0      0.00%     89.11% # Type of FU issued
system.cpu00.iq.FU_type_0::SimdShaSigma2            0      0.00%     89.11% # Type of FU issued
system.cpu00.iq.FU_type_0::SimdShaSigma3            0      0.00%     89.11% # Type of FU issued
system.cpu00.iq.FU_type_0::SimdPredAlu              0      0.00%     89.11% # Type of FU issued
system.cpu00.iq.FU_type_0::MemRead           46594577      5.11%     94.22% # Type of FU issued
system.cpu00.iq.FU_type_0::MemWrite           1052286      0.12%     94.33% # Type of FU issued
system.cpu00.iq.FU_type_0::FloatMemRead      51704544      5.67%    100.00% # Type of FU issued
system.cpu00.iq.FU_type_0::FloatMemWrite         1419      0.00%    100.00% # Type of FU issued
system.cpu00.iq.FU_type_0::IprAccess                0      0.00%    100.00% # Type of FU issued
system.cpu00.iq.FU_type_0::InstPrefetch             0      0.00%    100.00% # Type of FU issued
system.cpu00.iq.FU_type_0::total            912197775                       # Type of FU issued
system.cpu00.iq.fp_alu_accesses             277412947                       # Number of floating point alu accesses
system.cpu00.iq.fp_inst_queue_reads         554564511                       # Number of floating instruction queue reads
system.cpu00.iq.fp_inst_queue_wakeup_accesses    276827459                       # Number of floating instruction queue wakeup accesses
system.cpu00.iq.fp_inst_queue_writes        276835327                       # Number of floating instruction queue writes
system.cpu00.iq.fu_busy_cnt                   7230626                       # FU busy when requested
system.cpu00.iq.fu_busy_rate                 0.007927                       # FU busy rate (busy events/executed inst)
system.cpu00.iq.fu_full::No_OpClass                 0      0.00%      0.00% # attempts to use FU when none available
system.cpu00.iq.fu_full::IntAlu               6770143     93.63%     93.63% # attempts to use FU when none available
system.cpu00.iq.fu_full::IntMult                    0      0.00%     93.63% # attempts to use FU when none available
system.cpu00.iq.fu_full::IntDiv                     0      0.00%     93.63% # attempts to use FU when none available
system.cpu00.iq.fu_full::FloatAdd                   0      0.00%     93.63% # attempts to use FU when none available
system.cpu00.iq.fu_full::FloatCmp                   0      0.00%     93.63% # attempts to use FU when none available
system.cpu00.iq.fu_full::FloatCvt                   0      0.00%     93.63% # attempts to use FU when none available
system.cpu00.iq.fu_full::FloatMult                  0      0.00%     93.63% # attempts to use FU when none available
system.cpu00.iq.fu_full::FloatMultAcc               0      0.00%     93.63% # attempts to use FU when none available
system.cpu00.iq.fu_full::FloatDiv                   0      0.00%     93.63% # attempts to use FU when none available
system.cpu00.iq.fu_full::FloatMisc                  0      0.00%     93.63% # attempts to use FU when none available
system.cpu00.iq.fu_full::FloatSqrt                  0      0.00%     93.63% # attempts to use FU when none available
system.cpu00.iq.fu_full::SimdAdd                    0      0.00%     93.63% # attempts to use FU when none available
system.cpu00.iq.fu_full::SimdAddAcc                 0      0.00%     93.63% # attempts to use FU when none available
system.cpu00.iq.fu_full::SimdAlu                66142      0.91%     94.55% # attempts to use FU when none available
system.cpu00.iq.fu_full::SimdCmp                    0      0.00%     94.55% # attempts to use FU when none available
system.cpu00.iq.fu_full::SimdCvt                    0      0.00%     94.55% # attempts to use FU when none available
system.cpu00.iq.fu_full::SimdMisc                   0      0.00%     94.55% # attempts to use FU when none available
system.cpu00.iq.fu_full::SimdMult                   0      0.00%     94.55% # attempts to use FU when none available
system.cpu00.iq.fu_full::SimdMultAcc                0      0.00%     94.55% # attempts to use FU when none available
system.cpu00.iq.fu_full::SimdShift                  0      0.00%     94.55% # attempts to use FU when none available
system.cpu00.iq.fu_full::SimdShiftAcc               0      0.00%     94.55% # attempts to use FU when none available
system.cpu00.iq.fu_full::SimdDiv                    0      0.00%     94.55% # attempts to use FU when none available
system.cpu00.iq.fu_full::SimdSqrt                   0      0.00%     94.55% # attempts to use FU when none available
system.cpu00.iq.fu_full::SimdFloatAdd               0      0.00%     94.55% # attempts to use FU when none available
system.cpu00.iq.fu_full::SimdFloatAlu               0      0.00%     94.55% # attempts to use FU when none available
system.cpu00.iq.fu_full::SimdFloatCmp               0      0.00%     94.55% # attempts to use FU when none available
system.cpu00.iq.fu_full::SimdFloatCvt               0      0.00%     94.55% # attempts to use FU when none available
system.cpu00.iq.fu_full::SimdFloatDiv               0      0.00%     94.55% # attempts to use FU when none available
system.cpu00.iq.fu_full::SimdFloatMisc              0      0.00%     94.55% # attempts to use FU when none available
system.cpu00.iq.fu_full::SimdFloatMult          45317      0.63%     95.17% # attempts to use FU when none available
system.cpu00.iq.fu_full::SimdFloatMultAcc            0      0.00%     95.17% # attempts to use FU when none available
system.cpu00.iq.fu_full::SimdFloatSqrt              0      0.00%     95.17% # attempts to use FU when none available
system.cpu00.iq.fu_full::SimdReduceAdd              0      0.00%     95.17% # attempts to use FU when none available
system.cpu00.iq.fu_full::SimdReduceAlu              0      0.00%     95.17% # attempts to use FU when none available
system.cpu00.iq.fu_full::SimdReduceCmp              0      0.00%     95.17% # attempts to use FU when none available
system.cpu00.iq.fu_full::SimdFloatReduceAdd            0      0.00%     95.17% # attempts to use FU when none available
system.cpu00.iq.fu_full::SimdFloatReduceCmp            0      0.00%     95.17% # attempts to use FU when none available
system.cpu00.iq.fu_full::SimdAes                    0      0.00%     95.17% # attempts to use FU when none available
system.cpu00.iq.fu_full::SimdAesMix                 0      0.00%     95.17% # attempts to use FU when none available
system.cpu00.iq.fu_full::SimdSha1Hash               0      0.00%     95.17% # attempts to use FU when none available
system.cpu00.iq.fu_full::SimdSha1Hash2              0      0.00%     95.17% # attempts to use FU when none available
system.cpu00.iq.fu_full::SimdSha256Hash             0      0.00%     95.17% # attempts to use FU when none available
system.cpu00.iq.fu_full::SimdSha256Hash2            0      0.00%     95.17% # attempts to use FU when none available
system.cpu00.iq.fu_full::SimdShaSigma2              0      0.00%     95.17% # attempts to use FU when none available
system.cpu00.iq.fu_full::SimdShaSigma3              0      0.00%     95.17% # attempts to use FU when none available
system.cpu00.iq.fu_full::SimdPredAlu                0      0.00%     95.17% # attempts to use FU when none available
system.cpu00.iq.fu_full::MemRead               198881      2.75%     97.92% # attempts to use FU when none available
system.cpu00.iq.fu_full::MemWrite                 197      0.00%     97.93% # attempts to use FU when none available
system.cpu00.iq.fu_full::FloatMemRead          149826      2.07%    100.00% # attempts to use FU when none available
system.cpu00.iq.fu_full::FloatMemWrite            120      0.00%    100.00% # attempts to use FU when none available
system.cpu00.iq.fu_full::IprAccess                  0      0.00%    100.00% # attempts to use FU when none available
system.cpu00.iq.fu_full::InstPrefetch               0      0.00%    100.00% # attempts to use FU when none available
system.cpu00.iq.int_alu_accesses            633625862                       # Number of integer alu accesses
system.cpu00.iq.int_inst_queue_reads       1455504285                       # Number of integer instruction queue reads
system.cpu00.iq.int_inst_queue_wakeup_accesses    630699275                       # Number of integer instruction queue wakeup accesses
system.cpu00.iq.int_inst_queue_writes       630734446                       # Number of integer instruction queue writes
system.cpu00.iq.iqInstsAdded                907541744                       # Number of instructions added to the IQ (excludes non-spec)
system.cpu00.iq.iqInstsIssued               912197775                       # Number of instructions issued
system.cpu00.iq.iqNonSpecInstsAdded               568                       # Number of non-speculative instructions added to the IQ
system.cpu00.iq.iqSquashedInstsExamined         27436                       # Number of squashed instructions iterated over during squash; mainly for profiling
system.cpu00.iq.iqSquashedInstsIssued             174                       # Number of squashed instructions issued
system.cpu00.iq.iqSquashedNonSpecRemoved           86                       # Number of squashed non-spec instructions that were removed
system.cpu00.iq.iqSquashedOperandsExamined        45435                       # Number of squashed operands that are examined and possibly removed from graph
system.cpu00.iq.issued_per_cycle::samples    178442449                       # Number of insts issued each cycle
system.cpu00.iq.issued_per_cycle::mean       5.112000                       # Number of insts issued each cycle
system.cpu00.iq.issued_per_cycle::stdev      1.901126                       # Number of insts issued each cycle
system.cpu00.iq.issued_per_cycle::underflows            0      0.00%      0.00% # Number of insts issued each cycle
system.cpu00.iq.issued_per_cycle::0           4451124      2.49%      2.49% # Number of insts issued each cycle
system.cpu00.iq.issued_per_cycle::1           5343469      2.99%      5.49% # Number of insts issued each cycle
system.cpu00.iq.issued_per_cycle::2           3382454      1.90%      7.38% # Number of insts issued each cycle
system.cpu00.iq.issued_per_cycle::3          17821931      9.99%     17.37% # Number of insts issued each cycle
system.cpu00.iq.issued_per_cycle::4          33573552     18.81%     36.19% # Number of insts issued each cycle
system.cpu00.iq.issued_per_cycle::5          36925514     20.69%     56.88% # Number of insts issued each cycle
system.cpu00.iq.issued_per_cycle::6          30934880     17.34%     74.22% # Number of insts issued each cycle
system.cpu00.iq.issued_per_cycle::7          25983653     14.56%     88.78% # Number of insts issued each cycle
system.cpu00.iq.issued_per_cycle::8          20025872     11.22%    100.00% # Number of insts issued each cycle
system.cpu00.iq.issued_per_cycle::overflows            0      0.00%    100.00% # Number of insts issued each cycle
system.cpu00.iq.issued_per_cycle::min_value            0                       # Number of insts issued each cycle
system.cpu00.iq.issued_per_cycle::max_value            8                       # Number of insts issued each cycle
system.cpu00.iq.issued_per_cycle::total     178442449                       # Number of insts issued each cycle
system.cpu00.iq.rate                         5.111133                       # Inst issue rate
system.cpu00.iq.vec_alu_accesses                    0                       # Number of vector alu accesses
system.cpu00.iq.vec_inst_queue_reads                0                       # Number of vector instruction queue reads
system.cpu00.iq.vec_inst_queue_wakeup_accesses            0                       # Number of vector instruction queue wakeup accesses
system.cpu00.iq.vec_inst_queue_writes               0                       # Number of vector instruction queue writes
system.cpu00.itb.rdAccesses                         0                       # TLB accesses on read requests
system.cpu00.itb.rdMisses                           0                       # TLB misses on read requests
system.cpu00.itb.walker.pwrStateResidencyTicks::UNDEFINED 170107367688                       # Cumulative time (in ticks) in various power states
system.cpu00.itb.wrAccesses                  20976597                       # TLB accesses on write requests
system.cpu00.itb.wrMisses                          34                       # TLB misses on write requests
system.cpu00.memDep0.conflictingLoads            1487                       # Number of conflicting loads.
system.cpu00.memDep0.conflictingStores           1326                       # Number of conflicting stores.
system.cpu00.memDep0.insertedLoads           93632597                       # Number of loads inserted to the mem dependence unit.
system.cpu00.memDep0.insertedStores           1054213                       # Number of stores inserted to the mem dependence unit.
system.cpu00.misc_regfile_reads             240024718                       # number of misc regfile reads
system.cpu00.numCycles                      178472702                       # number of cpu cycles simulated
system.cpu00.numPwrStateTransitions                 2                       # Number of power state transitions
system.cpu00.numWorkItemsCompleted                  0                       # number of work items this cpu completed
system.cpu00.numWorkItemsStarted                    0                       # number of work items this cpu started
system.cpu00.pwrStateClkGateDist::samples            1                       # Distribution of time spent in the clock gated state
system.cpu00.pwrStateClkGateDist::mean      727550721                       # Distribution of time spent in the clock gated state
system.cpu00.pwrStateClkGateDist::1000-5e+10            1    100.00%    100.00% # Distribution of time spent in the clock gated state
system.cpu00.pwrStateClkGateDist::min_value    727550721                       # Distribution of time spent in the clock gated state
system.cpu00.pwrStateClkGateDist::max_value    727550721                       # Distribution of time spent in the clock gated state
system.cpu00.pwrStateClkGateDist::total             1                       # Distribution of time spent in the clock gated state
system.cpu00.pwrStateResidencyTicks::ON  169379816967                       # Cumulative time (in ticks) in various power states
system.cpu00.pwrStateResidencyTicks::CLK_GATED    727550721                       # Cumulative time (in ticks) in various power states
system.cpu00.quiesceCycles                    2184836                       # Total number of cycles that CPU has spent quiesced or waiting for an interrupt
system.cpu00.rename.BlockCycles                954518                       # Number of cycles rename is blocking
system.cpu00.rename.CommittedMaps          1200448429                       # Number of HB maps that are committed
system.cpu00.rename.IQFullEvents               224950                       # Number of times rename has blocked due to IQ full
system.cpu00.rename.IdleCycles               21014805                       # Number of cycles rename is idle
system.cpu00.rename.ROBFullEvents               96002                       # Number of times rename has blocked due to ROB full
system.cpu00.rename.RenameLookups          2153153836                       # Number of register rename lookups that rename has made
system.cpu00.rename.RenamedInsts            907550331                       # Number of instructions processed by rename
system.cpu00.rename.RenamedOperands        1200491730                       # Number of destination operands rename has renamed
system.cpu00.rename.RunCycles               156044927                       # Number of cycles rename is running
system.cpu00.rename.SQFullEvents                25154                       # Number of times rename has blocked due to SQ full
system.cpu00.rename.SquashCycles                 1006                       # Number of cycles rename is squashing
system.cpu00.rename.UnblockCycles              410523                       # Number of cycles rename is unblocking
system.cpu00.rename.UndoneMaps                  43306                       # Number of HB maps that are undone due to squashing
system.cpu00.rename.fp_rename_lookups       523252021                       # Number of floating rename lookups
system.cpu00.rename.int_rename_lookups      954243223                       # Number of integer rename lookups
system.cpu00.rename.serializeStallCycles        16670                       # count of cycles rename stalled for serializing inst
system.cpu00.rename.serializingInsts               63                       # count of serializing insts renamed
system.cpu00.rename.skidInsts                  836802                       # count of insts added to the skid buffer
system.cpu00.rename.tempSerializingInsts           64                       # count of temporary serializing insts renamed
system.cpu00.rob.rob_reads                 1018650048                       # The number of ROB reads
system.cpu00.rob.rob_writes                1815088401                       # The number of ROB writes
system.cpu00.timesIdled                           116                       # Number of times that the entire CPU went into an idle state and unscheduled itself
system.cpu00.workload.numSyscalls                  49                       # Number of system calls
system.cpu01.apic_clk_domain.clock               5328                       # Clock period in ticks
system.cpu01.branchPred.BTBCorrect                  0                       # Number of correct BTB predictions (this stat may not work properly.
system.cpu01.branchPred.BTBHitPct            0.000000                       # BTB Hit Percentage
system.cpu01.branchPred.BTBHits                     0                       # Number of BTB hits
system.cpu01.branchPred.BTBLookups           61700495                       # Number of BTB lookups
system.cpu01.branchPred.RASInCorrect                8                       # Number of incorrect RAS predictions.
system.cpu01.branchPred.condIncorrect             759                       # Number of conditional branches incorrect
system.cpu01.branchPred.condPredicted        70429762                       # Number of conditional branches predicted
system.cpu01.branchPred.indirectHits         55924294                       # Number of indirect target hits.
system.cpu01.branchPred.indirectLookups      61700495                       # Number of indirect predictor lookups.
system.cpu01.branchPred.indirectMisses        5776201                       # Number of indirect misses.
system.cpu01.branchPred.lookups              70429762                       # Number of BP lookups
system.cpu01.branchPred.usedRAS                    81                       # Number of times the RAS was used to get a target.
system.cpu01.branchPredindirectMispredicted          187                       # Number of mispredicted indirect branches.
system.cpu01.cc_regfile_reads               440741807                       # number of cc regfile reads
system.cpu01.cc_regfile_writes              367000915                       # number of cc regfile writes
system.cpu01.commit.amos                            0                       # Number of atomic instructions committed
system.cpu01.commit.branchMispredicts             856                       # The number of times a branch was mispredicted
system.cpu01.commit.branches                 70427189                       # Number of branches committed
system.cpu01.commit.bw_lim_events            69412721                       # number cycles where commit BW limit reached
system.cpu01.commit.commitNonSpecStalls            14                       # The number of times commit has been forced to stall to communicate backwards
system.cpu01.commit.commitSquashedInsts         26677                       # The number of squashed insts skipped by commit
system.cpu01.commit.committedInsts          536691130                       # Number of instructions committed
system.cpu01.commit.committedOps            908057939                       # Number of ops (including micro ops) committed
system.cpu01.commit.committed_per_cycle::samples    178312673                       # Number of insts commited each cycle
system.cpu01.commit.committed_per_cycle::mean     5.092504                       # Number of insts commited each cycle
system.cpu01.commit.committed_per_cycle::stdev     3.054501                       # Number of insts commited each cycle
system.cpu01.commit.committed_per_cycle::underflows            0      0.00%      0.00% # Number of insts commited each cycle
system.cpu01.commit.committed_per_cycle::0     10694079      6.00%      6.00% # Number of insts commited each cycle
system.cpu01.commit.committed_per_cycle::1     23420155     13.13%     19.13% # Number of insts commited each cycle
system.cpu01.commit.committed_per_cycle::2     30769460     17.26%     36.39% # Number of insts commited each cycle
system.cpu01.commit.committed_per_cycle::3      3124008      1.75%     38.14% # Number of insts commited each cycle
system.cpu01.commit.committed_per_cycle::4      3131755      1.76%     39.90% # Number of insts commited each cycle
system.cpu01.commit.committed_per_cycle::5      5035690      2.82%     42.72% # Number of insts commited each cycle
system.cpu01.commit.committed_per_cycle::6      8354033      4.69%     47.41% # Number of insts commited each cycle
system.cpu01.commit.committed_per_cycle::7     24370772     13.67%     61.07% # Number of insts commited each cycle
system.cpu01.commit.committed_per_cycle::8     69412721     38.93%    100.00% # Number of insts commited each cycle
system.cpu01.commit.committed_per_cycle::overflows            0      0.00%    100.00% # Number of insts commited each cycle
system.cpu01.commit.committed_per_cycle::min_value            0                       # Number of insts commited each cycle
system.cpu01.commit.committed_per_cycle::max_value            8                       # Number of insts commited each cycle
system.cpu01.commit.committed_per_cycle::total    178312673                       # Number of insts commited each cycle
system.cpu01.commit.fp_insts                276824082                       # Number of committed floating point instructions.
system.cpu01.commit.function_calls                 10                       # Number of function calls committed.
system.cpu01.commit.int_insts               704285638                       # Number of committed integer instructions.
system.cpu01.commit.loads                    93672920                       # Number of loads committed
system.cpu01.commit.membars                         8                       # Number of memory barriers committed
system.cpu01.commit.op_class_0::No_OpClass      8388868      0.92%      0.92% # Class of committed instruction
system.cpu01.commit.op_class_0::IntAlu      572163106     63.01%     63.93% # Class of committed instruction
system.cpu01.commit.op_class_0::IntMult       7340034      0.81%     64.74% # Class of committed instruction
system.cpu01.commit.op_class_0::IntDiv              7      0.00%     64.74% # Class of committed instruction
system.cpu01.commit.op_class_0::FloatAdd            0      0.00%     64.74% # Class of committed instruction
system.cpu01.commit.op_class_0::FloatCmp            0      0.00%     64.74% # Class of committed instruction
system.cpu01.commit.op_class_0::FloatCvt            0      0.00%     64.74% # Class of committed instruction
system.cpu01.commit.op_class_0::FloatMult            0      0.00%     64.74% # Class of committed instruction
system.cpu01.commit.op_class_0::FloatMultAcc            0      0.00%     64.74% # Class of committed instruction
system.cpu01.commit.op_class_0::FloatDiv            0      0.00%     64.74% # Class of committed instruction
system.cpu01.commit.op_class_0::FloatMisc            0      0.00%     64.74% # Class of committed instruction
system.cpu01.commit.op_class_0::FloatSqrt            0      0.00%     64.74% # Class of committed instruction
system.cpu01.commit.op_class_0::SimdAdd             0      0.00%     64.74% # Class of committed instruction
system.cpu01.commit.op_class_0::SimdAddAcc            0      0.00%     64.74% # Class of committed instruction
system.cpu01.commit.op_class_0::SimdAlu      60817408      6.70%     71.44% # Class of committed instruction
system.cpu01.commit.op_class_0::SimdCmp             0      0.00%     71.44% # Class of committed instruction
system.cpu01.commit.op_class_0::SimdCvt             0      0.00%     71.44% # Class of committed instruction
system.cpu01.commit.op_class_0::SimdMisc     30408705      3.35%     74.79% # Class of committed instruction
system.cpu01.commit.op_class_0::SimdMult            0      0.00%     74.79% # Class of committed instruction
system.cpu01.commit.op_class_0::SimdMultAcc            0      0.00%     74.79% # Class of committed instruction
system.cpu01.commit.op_class_0::SimdShift            0      0.00%     74.79% # Class of committed instruction
system.cpu01.commit.op_class_0::SimdShiftAcc            0      0.00%     74.79% # Class of committed instruction
system.cpu01.commit.op_class_0::SimdDiv             0      0.00%     74.79% # Class of committed instruction
system.cpu01.commit.op_class_0::SimdSqrt            0      0.00%     74.79% # Class of committed instruction
system.cpu01.commit.op_class_0::SimdFloatAdd     51380224      5.66%     80.45% # Class of committed instruction
system.cpu01.commit.op_class_0::SimdFloatAlu            0      0.00%     80.45% # Class of committed instruction
system.cpu01.commit.op_class_0::SimdFloatCmp            0      0.00%     80.45% # Class of committed instruction
system.cpu01.commit.op_class_0::SimdFloatCvt     31457280      3.46%     83.91% # Class of committed instruction
system.cpu01.commit.op_class_0::SimdFloatDiv            0      0.00%     83.91% # Class of committed instruction
system.cpu01.commit.op_class_0::SimdFloatMisc            0      0.00%     83.91% # Class of committed instruction
system.cpu01.commit.op_class_0::SimdFloatMult     51380224      5.66%     89.57% # Class of committed instruction
system.cpu01.commit.op_class_0::SimdFloatMultAcc            0      0.00%     89.57% # Class of committed instruction
system.cpu01.commit.op_class_0::SimdFloatSqrt            0      0.00%     89.57% # Class of committed instruction
system.cpu01.commit.op_class_0::SimdReduceAdd            0      0.00%     89.57% # Class of committed instruction
system.cpu01.commit.op_class_0::SimdReduceAlu            0      0.00%     89.57% # Class of committed instruction
system.cpu01.commit.op_class_0::SimdReduceCmp            0      0.00%     89.57% # Class of committed instruction
system.cpu01.commit.op_class_0::SimdFloatReduceAdd            0      0.00%     89.57% # Class of committed instruction
system.cpu01.commit.op_class_0::SimdFloatReduceCmp            0      0.00%     89.57% # Class of committed instruction
system.cpu01.commit.op_class_0::SimdAes             0      0.00%     89.57% # Class of committed instruction
system.cpu01.commit.op_class_0::SimdAesMix            0      0.00%     89.57% # Class of committed instruction
system.cpu01.commit.op_class_0::SimdSha1Hash            0      0.00%     89.57% # Class of committed instruction
system.cpu01.commit.op_class_0::SimdSha1Hash2            0      0.00%     89.57% # Class of committed instruction
system.cpu01.commit.op_class_0::SimdSha256Hash            0      0.00%     89.57% # Class of committed instruction
system.cpu01.commit.op_class_0::SimdSha256Hash2            0      0.00%     89.57% # Class of committed instruction
system.cpu01.commit.op_class_0::SimdShaSigma2            0      0.00%     89.57% # Class of committed instruction
system.cpu01.commit.op_class_0::SimdShaSigma3            0      0.00%     89.57% # Class of committed instruction
system.cpu01.commit.op_class_0::SimdPredAlu            0      0.00%     89.57% # Class of committed instruction
system.cpu01.commit.op_class_0::MemRead      42292687      4.66%     94.23% # Class of committed instruction
system.cpu01.commit.op_class_0::MemWrite      1049155      0.12%     94.34% # Class of committed instruction
system.cpu01.commit.op_class_0::FloatMemRead     51380233      5.66%    100.00% # Class of committed instruction
system.cpu01.commit.op_class_0::FloatMemWrite            8      0.00%    100.00% # Class of committed instruction
system.cpu01.commit.op_class_0::IprAccess            0      0.00%    100.00% # Class of committed instruction
system.cpu01.commit.op_class_0::InstPrefetch            0      0.00%    100.00% # Class of committed instruction
system.cpu01.commit.op_class_0::total       908057939                       # Class of committed instruction
system.cpu01.commit.refs                     94722083                       # Number of memory references committed
system.cpu01.commit.swp_count                       0                       # Number of s/w prefetches committed
system.cpu01.commit.vec_insts                       0                       # Number of committed Vector instructions.
system.cpu01.committedInsts                 536691130                       # Number of Instructions Simulated
system.cpu01.committedOps                   908057939                       # Number of Ops (including micro ops) Simulated
system.cpu01.cpi                             0.332268                       # CPI: Cycles Per Instruction
system.cpu01.cpi_total                       0.332268                       # CPI: Total CPI of All Threads
system.cpu01.decode.BlockedCycles             2169255                       # Number of cycles decode is blocked
system.cpu01.decode.DecodedInsts            908094999                       # Number of instructions handled by decode
system.cpu01.decode.IdleCycles               20413218                       # Number of cycles decode is idle
system.cpu01.decode.RunCycles               154531699                       # Number of cycles decode is running
system.cpu01.decode.SquashCycles                  873                       # Number of cycles decode is squashing
system.cpu01.decode.UnblockCycles             1201484                       # Number of cycles decode is unblocking
system.cpu01.dtb.rdAccesses                  93675021                       # TLB accesses on read requests
system.cpu01.dtb.rdMisses                          23                       # TLB misses on read requests
system.cpu01.dtb.walker.pwrStateResidencyTicks::UNDEFINED 170107367688                       # Cumulative time (in ticks) in various power states
system.cpu01.dtb.wrAccesses                   1049218                       # TLB accesses on write requests
system.cpu01.dtb.wrMisses                         258                       # TLB misses on write requests
system.cpu01.fetch.Branches                  70429762                       # Number of branches that fetch encountered
system.cpu01.fetch.CacheLines                20973668                       # Number of cache lines fetched
system.cpu01.fetch.Cycles                   157336705                       # Number of cycles fetch has run and was not squashing or blocked
system.cpu01.fetch.IcacheSquashes                  55                       # Number of outstanding Icache misses that were squashed
system.cpu01.fetch.IcacheWaitRetryStallCycles          510                       # Number of stall cycles due to full MSHR
system.cpu01.fetch.Insts                    536715879                       # Number of instructions fetch has processed
system.cpu01.fetch.MiscStallCycles               1859                       # Number of cycles fetch has spent waiting on interrupts, or bad addresses, or out of MSHRs
system.cpu01.fetch.PendingTrapStallCycles          897                       # Number of stall cycles due to pending traps
system.cpu01.fetch.SquashCycles                  1746                       # Number of cycles fetch has spent squashing
system.cpu01.fetch.branchRate                0.394951                       # Number of branch fetches per cycle
system.cpu01.fetch.icacheStallCycles         20975685                       # Number of cycles fetch is stalled on an Icache miss
system.cpu01.fetch.predictedBranches         55924375                       # Number of branches that fetch has predicted taken
system.cpu01.fetch.rate                      3.009760                       # Number of inst fetches per cycle
system.cpu01.fetch.rateDist::samples        178316529                       # Number of instructions fetched each cycle (Total)
system.cpu01.fetch.rateDist::mean            5.092634                       # Number of instructions fetched each cycle (Total)
system.cpu01.fetch.rateDist::stdev           3.434278                       # Number of instructions fetched each cycle (Total)
system.cpu01.fetch.rateDist::underflows             0      0.00%      0.00% # Number of instructions fetched each cycle (Total)
system.cpu01.fetch.rateDist::0               21888322     12.27%     12.27% # Number of instructions fetched each cycle (Total)
system.cpu01.fetch.rateDist::1               40338539     22.62%     34.90% # Number of instructions fetched each cycle (Total)
system.cpu01.fetch.rateDist::2                1060180      0.59%     35.49% # Number of instructions fetched each cycle (Total)
system.cpu01.fetch.rateDist::3                  25844      0.01%     35.51% # Number of instructions fetched each cycle (Total)
system.cpu01.fetch.rateDist::4               10844563      6.08%     41.59% # Number of instructions fetched each cycle (Total)
system.cpu01.fetch.rateDist::5                   8784      0.00%     41.59% # Number of instructions fetched each cycle (Total)
system.cpu01.fetch.rateDist::6                4737901      2.66%     44.25% # Number of instructions fetched each cycle (Total)
system.cpu01.fetch.rateDist::7                1584295      0.89%     45.14% # Number of instructions fetched each cycle (Total)
system.cpu01.fetch.rateDist::8               97828101     54.86%    100.00% # Number of instructions fetched each cycle (Total)
system.cpu01.fetch.rateDist::overflows              0      0.00%    100.00% # Number of instructions fetched each cycle (Total)
system.cpu01.fetch.rateDist::min_value              0                       # Number of instructions fetched each cycle (Total)
system.cpu01.fetch.rateDist::max_value              8                       # Number of instructions fetched each cycle (Total)
system.cpu01.fetch.rateDist::total          178316529                       # Number of instructions fetched each cycle (Total)
system.cpu01.fp_regfile_reads               523242765                       # number of floating regfile reads
system.cpu01.fp_regfile_writes              274728608                       # number of floating regfile writes
system.cpu01.idleCycles                          8611                       # Total number of cycles that the CPU has spent unscheduled due to idling
system.cpu01.iew.branchMispredicts                982                       # Number of branch mispredicts detected at execute
system.cpu01.iew.exec_branches               70427464                       # Number of branches executed
system.cpu01.iew.exec_nop                           0                       # number of nop insts executed
system.cpu01.iew.exec_rate                   5.146363                       # Inst execution rate
system.cpu01.iew.exec_refs                  104379666                       # number of memory reference insts executed
system.cpu01.iew.exec_stores                  1049218                       # Number of stores executed
system.cpu01.iew.exec_swp                           0                       # number of swp insts executed
system.cpu01.iew.iewBlockCycles                440658                       # Number of cycles IEW is blocking
system.cpu01.iew.iewDispLoadInsts            93676600                       # Number of dispatched load instructions
system.cpu01.iew.iewDispNonSpecInsts               33                       # Number of dispatched non-speculative instructions
system.cpu01.iew.iewDispSquashedInsts               6                       # Number of squashed instructions skipped by dispatch
system.cpu01.iew.iewDispStoreInsts            1049530                       # Number of dispatched store instructions
system.cpu01.iew.iewDispatchedInsts         908084725                       # Number of instructions dispatched to IQ
system.cpu01.iew.iewExecLoadInsts           103330448                       # Number of load instructions executed
system.cpu01.iew.iewExecSquashedInsts             871                       # Number of squashed instructions skipped in execute
system.cpu01.iew.iewExecutedInsts           917725885                       # Number of executed instructions
system.cpu01.iew.iewIQFullEvents                 6875                       # Number of times the IQ has become full, causing a stall
system.cpu01.iew.iewIdleCycles                      0                       # Number of cycles IEW is idle
system.cpu01.iew.iewLSQFullEvents                   0                       # Number of times the LSQ has become full, causing a stall
system.cpu01.iew.iewSquashCycles                  873                       # Number of cycles IEW is squashing
system.cpu01.iew.iewUnblockCycles               13317                       # Number of cycles IEW is unblocking
system.cpu01.iew.lsq.thread0.blockedLoads            0                       # Number of blocked loads due to partial load-store forwarding
system.cpu01.iew.lsq.thread0.cacheBlocked      7484772                       # Number of times an access to memory failed due to the cache being blocked
system.cpu01.iew.lsq.thread0.forwLoads            263                       # Number of loads that had data forwarded from stores
system.cpu01.iew.lsq.thread0.ignoredResponses            0                       # Number of memory responses ignored because the instruction is squashed
system.cpu01.iew.lsq.thread0.invAddrLoads            0                       # Number of loads ignored due to an invalid address
system.cpu01.iew.lsq.thread0.invAddrSwpfs            0                       # Number of software prefetches ignored due to an invalid address
system.cpu01.iew.lsq.thread0.memOrderViolation           15                       # Number of memory ordering violations
system.cpu01.iew.lsq.thread0.rescheduledLoads            0                       # Number of loads that were rescheduled
system.cpu01.iew.lsq.thread0.squashedLoads         3677                       # Number of loads squashed
system.cpu01.iew.lsq.thread0.squashedStores          367                       # Number of stores squashed
system.cpu01.iew.memOrderViolationEvents           15                       # Number of memory order violations
system.cpu01.iew.predictedNotTakenIncorrect          457                       # Number of branches that were predicted not taken incorrectly
system.cpu01.iew.predictedTakenIncorrect          525                       # Number of branches that were predicted taken incorrectly
system.cpu01.iew.wb_consumers              1239054134                       # num instructions consuming a value
system.cpu01.iew.wb_count                   908069131                       # cumulative count of insts written-back
system.cpu01.iew.wb_fanout                   0.624478                       # average fanout of values written-back
system.cpu01.iew.wb_producers               773762140                       # num instructions producing a value
system.cpu01.iew.wb_rate                     5.092210                       # insts written-back per cycle
system.cpu01.iew.wb_sent                    908069274                       # cumulative count of insts sent to commit
system.cpu01.int_regfile_reads              974044852                       # number of integer regfile reads
system.cpu01.int_regfile_writes             559417574                       # number of integer regfile writes
system.cpu01.interrupts.pwrStateResidencyTicks::UNDEFINED 170107367688                       # Cumulative time (in ticks) in various power states
system.cpu01.ipc                             3.009621                       # IPC: Instructions Per Cycle
system.cpu01.ipc_total                       3.009621                       # IPC: Total IPC of All Threads
system.cpu01.iq.FU_type_0::No_OpClass         8389624      0.91%      0.91% # Type of FU issued
system.cpu01.iq.FU_type_0::IntAlu           572171424     62.35%     63.26% # Type of FU issued
system.cpu01.iq.FU_type_0::IntMult            7340040      0.80%     64.06% # Type of FU issued
system.cpu01.iq.FU_type_0::IntDiv                   7      0.00%     64.06% # Type of FU issued
system.cpu01.iq.FU_type_0::FloatAdd                 6      0.00%     64.06% # Type of FU issued
system.cpu01.iq.FU_type_0::FloatCmp                 0      0.00%     64.06% # Type of FU issued
system.cpu01.iq.FU_type_0::FloatCvt                 0      0.00%     64.06% # Type of FU issued
system.cpu01.iq.FU_type_0::FloatMult                0      0.00%     64.06% # Type of FU issued
system.cpu01.iq.FU_type_0::FloatMultAcc             0      0.00%     64.06% # Type of FU issued
system.cpu01.iq.FU_type_0::FloatDiv                 0      0.00%     64.06% # Type of FU issued
system.cpu01.iq.FU_type_0::FloatMisc                0      0.00%     64.06% # Type of FU issued
system.cpu01.iq.FU_type_0::FloatSqrt                0      0.00%     64.06% # Type of FU issued
system.cpu01.iq.FU_type_0::SimdAdd                  0      0.00%     64.06% # Type of FU issued
system.cpu01.iq.FU_type_0::SimdAddAcc               0      0.00%     64.06% # Type of FU issued
system.cpu01.iq.FU_type_0::SimdAlu           60819023      6.63%     70.69% # Type of FU issued
system.cpu01.iq.FU_type_0::SimdCmp                  0      0.00%     70.69% # Type of FU issued
system.cpu01.iq.FU_type_0::SimdCvt                  0      0.00%     70.69% # Type of FU issued
system.cpu01.iq.FU_type_0::SimdMisc          30408707      3.31%     74.00% # Type of FU issued
system.cpu01.iq.FU_type_0::SimdMult                 0      0.00%     74.00% # Type of FU issued
system.cpu01.iq.FU_type_0::SimdMultAcc              0      0.00%     74.00% # Type of FU issued
system.cpu01.iq.FU_type_0::SimdShift                0      0.00%     74.00% # Type of FU issued
system.cpu01.iq.FU_type_0::SimdShiftAcc             0      0.00%     74.00% # Type of FU issued
system.cpu01.iq.FU_type_0::SimdDiv                  0      0.00%     74.00% # Type of FU issued
system.cpu01.iq.FU_type_0::SimdSqrt                 0      0.00%     74.00% # Type of FU issued
system.cpu01.iq.FU_type_0::SimdFloatAdd      51380224      5.60%     79.60% # Type of FU issued
system.cpu01.iq.FU_type_0::SimdFloatAlu             0      0.00%     79.60% # Type of FU issued
system.cpu01.iq.FU_type_0::SimdFloatCmp             0      0.00%     79.60% # Type of FU issued
system.cpu01.iq.FU_type_0::SimdFloatCvt      31457348      3.43%     83.03% # Type of FU issued
system.cpu01.iq.FU_type_0::SimdFloatDiv             0      0.00%     83.03% # Type of FU issued
system.cpu01.iq.FU_type_0::SimdFloatMisc            0      0.00%     83.03% # Type of FU issued
system.cpu01.iq.FU_type_0::SimdFloatMult     51380224      5.60%     88.63% # Type of FU issued
system.cpu01.iq.FU_type_0::SimdFloatMultAcc            0      0.00%     88.63% # Type of FU issued
system.cpu01.iq.FU_type_0::SimdFloatSqrt            0      0.00%     88.63% # Type of FU issued
system.cpu01.iq.FU_type_0::SimdReduceAdd            0      0.00%     88.63% # Type of FU issued
system.cpu01.iq.FU_type_0::SimdReduceAlu            0      0.00%     88.63% # Type of FU issued
system.cpu01.iq.FU_type_0::SimdReduceCmp            0      0.00%     88.63% # Type of FU issued
system.cpu01.iq.FU_type_0::SimdFloatReduceAdd            0      0.00%     88.63% # Type of FU issued
system.cpu01.iq.FU_type_0::SimdFloatReduceCmp            0      0.00%     88.63% # Type of FU issued
system.cpu01.iq.FU_type_0::SimdAes                  0      0.00%     88.63% # Type of FU issued
system.cpu01.iq.FU_type_0::SimdAesMix               0      0.00%     88.63% # Type of FU issued
system.cpu01.iq.FU_type_0::SimdSha1Hash             0      0.00%     88.63% # Type of FU issued
system.cpu01.iq.FU_type_0::SimdSha1Hash2            0      0.00%     88.63% # Type of FU issued
system.cpu01.iq.FU_type_0::SimdSha256Hash            0      0.00%     88.63% # Type of FU issued
system.cpu01.iq.FU_type_0::SimdSha256Hash2            0      0.00%     88.63% # Type of FU issued
system.cpu01.iq.FU_type_0::SimdShaSigma2            0      0.00%     88.63% # Type of FU issued
system.cpu01.iq.FU_type_0::SimdShaSigma3            0      0.00%     88.63% # Type of FU issued
system.cpu01.iq.FU_type_0::SimdPredAlu              0      0.00%     88.63% # Type of FU issued
system.cpu01.iq.FU_type_0::MemRead           51704603      5.63%     94.26% # Type of FU issued
system.cpu01.iq.FU_type_0::MemWrite           1049267      0.11%     94.37% # Type of FU issued
system.cpu01.iq.FU_type_0::FloatMemRead      51626258      5.63%    100.00% # Type of FU issued
system.cpu01.iq.FU_type_0::FloatMemWrite            8      0.00%    100.00% # Type of FU issued
system.cpu01.iq.FU_type_0::IprAccess                0      0.00%    100.00% # Type of FU issued
system.cpu01.iq.FU_type_0::InstPrefetch             0      0.00%    100.00% # Type of FU issued
system.cpu01.iq.FU_type_0::total            917726763                       # Type of FU issued
system.cpu01.iq.fp_alu_accesses             277316816                       # Number of floating point alu accesses
system.cpu01.iq.fp_inst_queue_reads         554388614                       # Number of floating instruction queue reads
system.cpu01.iq.fp_inst_queue_wakeup_accesses    276825749                       # Number of floating instruction queue wakeup accesses
system.cpu01.iq.fp_inst_queue_writes        276836748                       # Number of floating instruction queue writes
system.cpu01.iq.fu_busy_cnt                   6158847                       # FU busy when requested
system.cpu01.iq.fu_busy_rate                 0.006711                       # FU busy rate (busy events/executed inst)
system.cpu01.iq.fu_full::No_OpClass                 0      0.00%      0.00% # attempts to use FU when none available
system.cpu01.iq.fu_full::IntAlu               5758821     93.50%     93.50% # attempts to use FU when none available
system.cpu01.iq.fu_full::IntMult                    0      0.00%     93.50% # attempts to use FU when none available
system.cpu01.iq.fu_full::IntDiv                     0      0.00%     93.50% # attempts to use FU when none available
system.cpu01.iq.fu_full::FloatAdd                   0      0.00%     93.50% # attempts to use FU when none available
system.cpu01.iq.fu_full::FloatCmp                   0      0.00%     93.50% # attempts to use FU when none available
system.cpu01.iq.fu_full::FloatCvt                   0      0.00%     93.50% # attempts to use FU when none available
system.cpu01.iq.fu_full::FloatMult                  0      0.00%     93.50% # attempts to use FU when none available
system.cpu01.iq.fu_full::FloatMultAcc               0      0.00%     93.50% # attempts to use FU when none available
system.cpu01.iq.fu_full::FloatDiv                   0      0.00%     93.50% # attempts to use FU when none available
system.cpu01.iq.fu_full::FloatMisc                  0      0.00%     93.50% # attempts to use FU when none available
system.cpu01.iq.fu_full::FloatSqrt                  0      0.00%     93.50% # attempts to use FU when none available
system.cpu01.iq.fu_full::SimdAdd                    0      0.00%     93.50% # attempts to use FU when none available
system.cpu01.iq.fu_full::SimdAddAcc                 0      0.00%     93.50% # attempts to use FU when none available
system.cpu01.iq.fu_full::SimdAlu                66038      1.07%     94.58% # attempts to use FU when none available
system.cpu01.iq.fu_full::SimdCmp                    0      0.00%     94.58% # attempts to use FU when none available
system.cpu01.iq.fu_full::SimdCvt                    0      0.00%     94.58% # attempts to use FU when none available
system.cpu01.iq.fu_full::SimdMisc                   0      0.00%     94.58% # attempts to use FU when none available
system.cpu01.iq.fu_full::SimdMult                   0      0.00%     94.58% # attempts to use FU when none available
system.cpu01.iq.fu_full::SimdMultAcc                0      0.00%     94.58% # attempts to use FU when none available
system.cpu01.iq.fu_full::SimdShift                  0      0.00%     94.58% # attempts to use FU when none available
system.cpu01.iq.fu_full::SimdShiftAcc               0      0.00%     94.58% # attempts to use FU when none available
system.cpu01.iq.fu_full::SimdDiv                    0      0.00%     94.58% # attempts to use FU when none available
system.cpu01.iq.fu_full::SimdSqrt                   0      0.00%     94.58% # attempts to use FU when none available
system.cpu01.iq.fu_full::SimdFloatAdd               0      0.00%     94.58% # attempts to use FU when none available
system.cpu01.iq.fu_full::SimdFloatAlu               0      0.00%     94.58% # attempts to use FU when none available
system.cpu01.iq.fu_full::SimdFloatCmp               0      0.00%     94.58% # attempts to use FU when none available
system.cpu01.iq.fu_full::SimdFloatCvt               0      0.00%     94.58% # attempts to use FU when none available
system.cpu01.iq.fu_full::SimdFloatDiv               0      0.00%     94.58% # attempts to use FU when none available
system.cpu01.iq.fu_full::SimdFloatMisc              0      0.00%     94.58% # attempts to use FU when none available
system.cpu01.iq.fu_full::SimdFloatMult          45213      0.73%     95.31% # attempts to use FU when none available
system.cpu01.iq.fu_full::SimdFloatMultAcc            0      0.00%     95.31% # attempts to use FU when none available
system.cpu01.iq.fu_full::SimdFloatSqrt              0      0.00%     95.31% # attempts to use FU when none available
system.cpu01.iq.fu_full::SimdReduceAdd              0      0.00%     95.31% # attempts to use FU when none available
system.cpu01.iq.fu_full::SimdReduceAlu              0      0.00%     95.31% # attempts to use FU when none available
system.cpu01.iq.fu_full::SimdReduceCmp              0      0.00%     95.31% # attempts to use FU when none available
system.cpu01.iq.fu_full::SimdFloatReduceAdd            0      0.00%     95.31% # attempts to use FU when none available
system.cpu01.iq.fu_full::SimdFloatReduceCmp            0      0.00%     95.31% # attempts to use FU when none available
system.cpu01.iq.fu_full::SimdAes                    0      0.00%     95.31% # attempts to use FU when none available
system.cpu01.iq.fu_full::SimdAesMix                 0      0.00%     95.31% # attempts to use FU when none available
system.cpu01.iq.fu_full::SimdSha1Hash               0      0.00%     95.31% # attempts to use FU when none available
[...]
system.ruby.network.int_links44.network_link.pwrStateResidencyTicks::UNDEFINED 170122336704                       # Cumulative time (in ticks) in various power states
system.ruby.network.int_links45.credit_link.pwrStateResidencyTicks::UNDEFINED 170122336704                       # Cumulative time (in ticks) in various power states
system.ruby.network.int_links45.network_link.pwrStateResidencyTicks::UNDEFINED 170122336704                       # Cumulative time (in ticks) in various power states
system.ruby.network.int_links46.credit_link.pwrStateResidencyTicks::UNDEFINED 170122336704                       # Cumulative time (in ticks) in various power states
system.ruby.network.int_links46.network_link.pwrStateResidencyTicks::UNDEFINED 170122336704                       # Cumulative time (in ticks) in various power states
system.ruby.network.int_links47.credit_link.pwrStateResidencyTicks::UNDEFINED 170122336704                       # Cumulative time (in ticks) in various power states
system.ruby.network.int_links47.network_link.pwrStateResidencyTicks::UNDEFINED 170122336704                       # Cumulative time (in ticks) in various power states
system.ruby.network.netifs00.pwrStateResidencyTicks::UNDEFINED 170122336704                       # Cumulative time (in ticks) in various power states
system.ruby.network.netifs01.pwrStateResidencyTicks::UNDEFINED 170122336704                       # Cumulative time (in ticks) in various power states
system.ruby.network.netifs02.pwrStateResidencyTicks::UNDEFINED 170122336704                       # Cumulative time (in ticks) in various power states
system.ruby.network.netifs03.pwrStateResidencyTicks::UNDEFINED 170122336704                       # Cumulative time (in ticks) in various power states
system.ruby.network.netifs04.pwrStateResidencyTicks::UNDEFINED 170122336704                       # Cumulative time (in ticks) in various power states
system.ruby.network.netifs05.pwrStateResidencyTicks::UNDEFINED 170122336704                       # Cumulative time (in ticks) in various power states
system.ruby.network.netifs06.pwrStateResidencyTicks::UNDEFINED 170122336704                       # Cumulative time (in ticks) in various power states
system.ruby.network.netifs07.pwrStateResidencyTicks::UNDEFINED 170122336704                       # Cumulative time (in ticks) in various power states
system.ruby.network.netifs08.pwrStateResidencyTicks::UNDEFINED 170122336704                       # Cumulative time (in ticks) in various power states
system.ruby.network.netifs09.pwrStateResidencyTicks::UNDEFINED 170122336704                       # Cumulative time (in ticks) in various power states
system.ruby.network.netifs10.pwrStateResidencyTicks::UNDEFINED 170122336704                       # Cumulative time (in ticks) in various power states
system.ruby.network.netifs11.pwrStateResidencyTicks::UNDEFINED 170122336704                       # Cumulative time (in ticks) in various power states
system.ruby.network.netifs12.pwrStateResidencyTicks::UNDEFINED 170122336704                       # Cumulative time (in ticks) in various power states
system.ruby.network.netifs13.pwrStateResidencyTicks::UNDEFINED 170122336704                       # Cumulative time (in ticks) in various power states
system.ruby.network.netifs14.pwrStateResidencyTicks::UNDEFINED 170122336704                       # Cumulative time (in ticks) in various power states
system.ruby.network.netifs15.pwrStateResidencyTicks::UNDEFINED 170122336704                       # Cumulative time (in ticks) in various power states
system.ruby.network.netifs16.pwrStateResidencyTicks::UNDEFINED 170122336704                       # Cumulative time (in ticks) in various power states
system.ruby.network.netifs17.pwrStateResidencyTicks::UNDEFINED 170122336704                       # Cumulative time (in ticks) in various power states
system.ruby.network.netifs18.pwrStateResidencyTicks::UNDEFINED 170122336704                       # Cumulative time (in ticks) in various power states
system.ruby.network.netifs19.pwrStateResidencyTicks::UNDEFINED 170122336704                       # Cumulative time (in ticks) in various power states
system.ruby.network.netifs20.pwrStateResidencyTicks::UNDEFINED 170122336704                       # Cumulative time (in ticks) in various power states
system.ruby.network.netifs21.pwrStateResidencyTicks::UNDEFINED 170122336704                       # Cumulative time (in ticks) in various power states
system.ruby.network.netifs22.pwrStateResidencyTicks::UNDEFINED 170122336704                       # Cumulative time (in ticks) in various power states
system.ruby.network.netifs23.pwrStateResidencyTicks::UNDEFINED 170122336704                       # Cumulative time (in ticks) in various power states
system.ruby.network.netifs24.pwrStateResidencyTicks::UNDEFINED 170122336704                       # Cumulative time (in ticks) in various power states
system.ruby.network.netifs25.pwrStateResidencyTicks::UNDEFINED 170122336704                       # Cumulative time (in ticks) in various power states
system.ruby.network.netifs26.pwrStateResidencyTicks::UNDEFINED 170122336704                       # Cumulative time (in ticks) in various power states
system.ruby.network.netifs27.pwrStateResidencyTicks::UNDEFINED 170122336704                       # Cumulative time (in ticks) in various power states
system.ruby.network.netifs28.pwrStateResidencyTicks::UNDEFINED 170122336704                       # Cumulative time (in ticks) in various power states
system.ruby.network.netifs29.pwrStateResidencyTicks::UNDEFINED 170122336704                       # Cumulative time (in ticks) in various power states
system.ruby.network.netifs30.pwrStateResidencyTicks::UNDEFINED 170122336704                       # Cumulative time (in ticks) in various power states
system.ruby.network.netifs31.pwrStateResidencyTicks::UNDEFINED 170122336704                       # Cumulative time (in ticks) in various power states
system.ruby.network.netifs32.pwrStateResidencyTicks::UNDEFINED 170122336704                       # Cumulative time (in ticks) in various power states
system.ruby.network.netifs33.pwrStateResidencyTicks::UNDEFINED 170122336704                       # Cumulative time (in ticks) in various power states
system.ruby.network.netifs34.pwrStateResidencyTicks::UNDEFINED 170122336704                       # Cumulative time (in ticks) in various power states
system.ruby.network.netifs35.pwrStateResidencyTicks::UNDEFINED 170122336704                       # Cumulative time (in ticks) in various power states
system.ruby.network.netifs36.pwrStateResidencyTicks::UNDEFINED 170122336704                       # Cumulative time (in ticks) in various power states
system.ruby.network.netifs37.pwrStateResidencyTicks::UNDEFINED 170122336704                       # Cumulative time (in ticks) in various power states
system.ruby.network.netifs38.pwrStateResidencyTicks::UNDEFINED 170122336704                       # Cumulative time (in ticks) in various power states
system.ruby.network.netifs39.pwrStateResidencyTicks::UNDEFINED 170122336704                       # Cumulative time (in ticks) in various power states
system.ruby.network.netifs40.pwrStateResidencyTicks::UNDEFINED 170122336704                       # Cumulative time (in ticks) in various power states
system.ruby.network.netifs41.pwrStateResidencyTicks::UNDEFINED 170122336704                       # Cumulative time (in ticks) in various power states
system.ruby.network.netifs42.pwrStateResidencyTicks::UNDEFINED 170122336704                       # Cumulative time (in ticks) in various power states
system.ruby.network.netifs43.pwrStateResidencyTicks::UNDEFINED 170122336704                       # Cumulative time (in ticks) in various power states
system.ruby.network.netifs44.pwrStateResidencyTicks::UNDEFINED 170122336704                       # Cumulative time (in ticks) in various power states
system.ruby.network.netifs45.pwrStateResidencyTicks::UNDEFINED 170122336704                       # Cumulative time (in ticks) in various power states
system.ruby.network.netifs46.pwrStateResidencyTicks::UNDEFINED 170122336704                       # Cumulative time (in ticks) in various power states
system.ruby.network.netifs47.pwrStateResidencyTicks::UNDEFINED 170122336704                       # Cumulative time (in ticks) in various power states
system.ruby.network.packet_network_latency |    20513209                       |    13299495                       |    28733885                      
system.ruby.network.packet_queueing_latency |     2244797                       |      914536                       |     9516474                      
system.ruby.network.packets_injected     |     1654997     29.39%     29.39% |      914467     16.24%     45.62% |     3062378     54.38%    100.00%
system.ruby.network.packets_injected::total      5631842                      
system.ruby.network.packets_received     |     1654996     29.39%     29.39% |      914467     16.24%     45.62% |     3062379     54.38%    100.00%
system.ruby.network.packets_received::total      5631842                      
system.ruby.network.pwrStateResidencyTicks::UNDEFINED 170122336704                       # Cumulative time (in ticks) in various power states
system.ruby.network.routers00.buffer_reads      6988516                      
system.ruby.network.routers00.buffer_writes      6988516                      
system.ruby.network.routers00.crossbar_activity      3497171                      
system.ruby.network.routers00.pwrStateResidencyTicks::UNDEFINED 170122336704                       # Cumulative time (in ticks) in various power states
system.ruby.network.routers00.sw_input_arbiter_activity      3561875                      
system.ruby.network.routers00.sw_output_arbiter_activity      3497171                      
system.ruby.network.routers01.buffer_reads      6563425                      
system.ruby.network.routers01.buffer_writes      6563425                      
system.ruby.network.routers01.crossbar_activity      3283329                      
system.ruby.network.routers01.pwrStateResidencyTicks::UNDEFINED 170122336704                       # Cumulative time (in ticks) in various power states
system.ruby.network.routers01.sw_input_arbiter_activity      3296104                      
system.ruby.network.routers01.sw_output_arbiter_activity      3283329                      
system.ruby.network.routers02.buffer_reads      5889492                      
system.ruby.network.routers02.buffer_writes      5889492                      
system.ruby.network.routers02.crossbar_activity      2945865                      
system.ruby.network.routers02.pwrStateResidencyTicks::UNDEFINED 170122336704                       # Cumulative time (in ticks) in various power states
system.ruby.network.routers02.sw_input_arbiter_activity      2958030                      
system.ruby.network.routers02.sw_output_arbiter_activity      2945865                      
system.ruby.network.routers03.buffer_reads      3908451                      
system.ruby.network.routers03.buffer_writes      3908451                      
system.ruby.network.routers03.crossbar_activity      1954904                      
system.ruby.network.routers03.pwrStateResidencyTicks::UNDEFINED 170122336704                       # Cumulative time (in ticks) in various power states
system.ruby.network.routers03.sw_input_arbiter_activity      1960600                      
system.ruby.network.routers03.sw_output_arbiter_activity      1954904                      
system.ruby.network.routers04.buffer_reads      5668177                      
system.ruby.network.routers04.buffer_writes      5668177                      
system.ruby.network.routers04.crossbar_activity      2835620                      
system.ruby.network.routers04.pwrStateResidencyTicks::UNDEFINED 170122336704                       # Cumulative time (in ticks) in various power states
system.ruby.network.routers04.sw_input_arbiter_activity      2864600                      
system.ruby.network.routers04.sw_output_arbiter_activity      2835620                      
system.ruby.network.routers05.buffer_reads      6765492                      
system.ruby.network.routers05.buffer_writes      6765492                      
system.ruby.network.routers05.crossbar_activity      3383655                      
system.ruby.network.routers05.pwrStateResidencyTicks::UNDEFINED 170122336704                       # Cumulative time (in ticks) in various power states
system.ruby.network.routers05.sw_input_arbiter_activity      3407331                      
system.ruby.network.routers05.sw_output_arbiter_activity      3383655                      
system.ruby.network.routers06.buffer_reads      6785314                      
system.ruby.network.routers06.buffer_writes      6785314                      
system.ruby.network.routers06.crossbar_activity      3393386                      
system.ruby.network.routers06.pwrStateResidencyTicks::UNDEFINED 170122336704                       # Cumulative time (in ticks) in various power states
system.ruby.network.routers06.sw_input_arbiter_activity      3414047                      
system.ruby.network.routers06.sw_output_arbiter_activity      3393386                      
system.ruby.network.routers07.buffer_reads      4992428                      
system.ruby.network.routers07.buffer_writes      4992428                      
system.ruby.network.routers07.crossbar_activity      2496907                      
system.ruby.network.routers07.pwrStateResidencyTicks::UNDEFINED 170122336704                       # Cumulative time (in ticks) in various power states
system.ruby.network.routers07.sw_input_arbiter_activity      2508977                      
system.ruby.network.routers07.sw_output_arbiter_activity      2496907                      
system.ruby.network.routers08.buffer_reads      4457329                      
system.ruby.network.routers08.buffer_writes      4457329                      
system.ruby.network.routers08.crossbar_activity      2229830                      
system.ruby.network.routers08.pwrStateResidencyTicks::UNDEFINED 170122336704                       # Cumulative time (in ticks) in various power states
system.ruby.network.routers08.sw_input_arbiter_activity      2234287                      
system.ruby.network.routers08.sw_output_arbiter_activity      2229830                      
system.ruby.network.routers09.buffer_reads      5685269                      
system.ruby.network.routers09.buffer_writes      5685269                      
system.ruby.network.routers09.crossbar_activity      2843491                      
system.ruby.network.routers09.pwrStateResidencyTicks::UNDEFINED 170122336704                       # Cumulative time (in ticks) in various power states
system.ruby.network.routers09.sw_input_arbiter_activity      2849933                      
system.ruby.network.routers09.sw_output_arbiter_activity      2843491                      
system.ruby.network.routers10.buffer_reads      5712939                      
system.ruby.network.routers10.buffer_writes      5712939                      
system.ruby.network.routers10.crossbar_activity      2857219                      
system.ruby.network.routers10.pwrStateResidencyTicks::UNDEFINED 170122336704                       # Cumulative time (in ticks) in various power states
system.ruby.network.routers10.sw_input_arbiter_activity      2864188                      
system.ruby.network.routers10.sw_output_arbiter_activity      2857219                      
system.ruby.network.routers11.buffer_reads      4414179                      
system.ruby.network.routers11.buffer_writes      4414179                      
system.ruby.network.routers11.crossbar_activity      2207749                      
system.ruby.network.routers11.pwrStateResidencyTicks::UNDEFINED 170122336704                       # Cumulative time (in ticks) in various power states
system.ruby.network.routers11.sw_input_arbiter_activity      2213132                      
system.ruby.network.routers11.sw_output_arbiter_activity      2207749                      
system.ruby.network.routers12.buffer_reads      3147083                      
system.ruby.network.routers12.buffer_writes      3147083                      
system.ruby.network.routers12.crossbar_activity      1574199                      
system.ruby.network.routers12.pwrStateResidencyTicks::UNDEFINED 170122336704                       # Cumulative time (in ticks) in various power states
system.ruby.network.routers12.sw_input_arbiter_activity      1575690                      
system.ruby.network.routers12.sw_output_arbiter_activity      1574199                      
system.ruby.network.routers13.buffer_reads      4397684                      
system.ruby.network.routers13.buffer_writes      4397684                      
system.ruby.network.routers13.crossbar_activity      2199415                      
system.ruby.network.routers13.pwrStateResidencyTicks::UNDEFINED 170122336704                       # Cumulative time (in ticks) in various power states
system.ruby.network.routers13.sw_input_arbiter_activity      2202491                      
system.ruby.network.routers13.sw_output_arbiter_activity      2199415                      
system.ruby.network.routers14.buffer_reads      4404700                      
system.ruby.network.routers14.buffer_writes      4404700                      
system.ruby.network.routers14.crossbar_activity      2202833                      
system.ruby.network.routers14.pwrStateResidencyTicks::UNDEFINED 170122336704                       # Cumulative time (in ticks) in various power states
system.ruby.network.routers14.sw_input_arbiter_activity      2205483                      
system.ruby.network.routers14.sw_output_arbiter_activity      2202833                      
system.ruby.network.routers15.buffer_reads      3130860                      
system.ruby.network.routers15.buffer_writes      3130860                      
system.ruby.network.routers15.crossbar_activity      1565819                      
system.ruby.network.routers15.pwrStateResidencyTicks::UNDEFINED 170122336704                       # Cumulative time (in ticks) in various power states
system.ruby.network.routers15.sw_input_arbiter_activity      1567203                      
system.ruby.network.routers15.sw_output_arbiter_activity      1565819                      
system.ruby.outstanding_req_hist_seqr::bucket_size            2                      
system.ruby.outstanding_req_hist_seqr::max_bucket           19                      
system.ruby.outstanding_req_hist_seqr::samples   3698967560                      
system.ruby.outstanding_req_hist_seqr::mean     1.292756                      
system.ruby.outstanding_req_hist_seqr::gmean     1.216043                      
system.ruby.outstanding_req_hist_seqr::stdev     0.508778                      
system.ruby.outstanding_req_hist_seqr    |  2709030960     73.24%     73.24% |   987088655     26.69%     99.92% |     2847167      0.08%    100.00% |         733      0.00%    100.00% |          44      0.00%    100.00% |           1      0.00%    100.00% |           0      0.00%    100.00% |           0      0.00%    100.00% |           0      0.00%    100.00% |           0      0.00%    100.00%
system.ruby.outstanding_req_hist_seqr::total   3698967560                      
system.ruby.pwrStateResidencyTicks::UNDEFINED 170122336704                       # Cumulative time (in ticks) in various power states
system.sys_port_proxy.pwrStateResidencyTicks::UNDEFINED 170122336704                       # Cumulative time (in ticks) in various power states
system.voltage_domain.voltage                       1                       # Voltage in Volts

---------- End Simulation Statistics   ----------
