
---------- Begin Simulation Statistics ----------
final_tick                               2842138133883                       # Number of ticks from beginning of simulation (restored from checkpoints and never reset)
host_inst_rate                                 166124                       # Simulator instruction rate (inst/s)
host_mem_usage                                3758692                       # Number of bytes of host memory used
host_op_rate                                   307694                       # Simulator op (including micro ops) rate (op/s)
host_seconds                                 28400.46                       # Real time elapsed on the host
host_tick_rate                               53841026                       # Simulator tick rate (ticks/s)
sim_freq                                 1000000000000                       # Frequency of simulated ticks
sim_insts                                  4717998192                       # Number of instructions simulated
sim_ops                                    8738644130                       # Number of ops (including micro ops) simulated
sim_seconds                                  1.529110                       # Number of seconds simulated
sim_ticks                                1529109975717                       # Number of ticks simulated
system.clk_domain.clock                          1000                       # Clock period in ticks
system.cpu00.apic_clk_domain.clock               5328                       # Clock period in ticks
system.cpu00.branchPred.BTBCorrect                  0                       # Number of correct BTB predictions (this stat may not work properly.
system.cpu00.branchPred.BTBHitPct            0.000000                       # BTB Hit Percentage
system.cpu00.branchPred.BTBHits                     0                       # Number of BTB hits
system.cpu00.branchPred.BTBLookups          144897261                       # Number of BTB lookups
system.cpu00.branchPred.RASInCorrect            37225                       # Number of incorrect RAS predictions.
system.cpu00.branchPred.condIncorrect         7217326                       # Number of conditional branches incorrect
system.cpu00.branchPred.condPredicted       244623633                       # Number of conditional branches predicted
system.cpu00.branchPred.indirectHits        102766263                       # Number of indirect target hits.
system.cpu00.branchPred.indirectLookups     144897261                       # Number of indirect predictor lookups.
system.cpu00.branchPred.indirectMisses       42130998                       # Number of indirect misses.
system.cpu00.branchPred.lookups             244623633                       # Number of BP lookups
system.cpu00.branchPred.usedRAS              47504513                       # Number of times the RAS was used to get a target.
system.cpu00.branchPredindirectMispredicted        53928                       # Number of mispredicted indirect branches.
system.cpu00.cc_regfile_reads              1563561305                       # number of cc regfile reads
system.cpu00.cc_regfile_writes              625275993                       # number of cc regfile writes
system.cpu00.commit.amos                            0                       # Number of atomic instructions committed
system.cpu00.commit.branchMispredicts         7217915                       # The number of times a branch was mispredicted
system.cpu00.commit.branches                178098453                       # Number of branches committed
system.cpu00.commit.bw_lim_events           172256052                       # number cycles where commit BW limit reached
system.cpu00.commit.commitNonSpecStalls       4050325                       # The number of times commit has been forced to stall to communicate backwards
system.cpu00.commit.commitSquashedInsts     663682745                       # The number of squashed insts skipped by commit
system.cpu00.commit.committedInsts          889842601                       # Number of instructions committed
system.cpu00.commit.committedOps           2256017867                       # Number of ops (including micro ops) committed
system.cpu00.commit.committed_per_cycle::samples   4508426575                       # Number of insts commited each cycle
system.cpu00.commit.committed_per_cycle::mean     0.500400                       # Number of insts commited each cycle
system.cpu00.commit.committed_per_cycle::stdev     1.679115                       # Number of insts commited each cycle
system.cpu00.commit.committed_per_cycle::underflows            0      0.00%      0.00% # Number of insts commited each cycle
system.cpu00.commit.committed_per_cycle::0   3892579408     86.34%     86.34% # Number of insts commited each cycle
system.cpu00.commit.committed_per_cycle::1    281428112      6.24%     92.58% # Number of insts commited each cycle
system.cpu00.commit.committed_per_cycle::2     32732434      0.73%     93.31% # Number of insts commited each cycle
system.cpu00.commit.committed_per_cycle::3     72515920      1.61%     94.92% # Number of insts commited each cycle
system.cpu00.commit.committed_per_cycle::4      4351282      0.10%     95.01% # Number of insts commited each cycle
system.cpu00.commit.committed_per_cycle::5     19571721      0.43%     95.45% # Number of insts commited each cycle
system.cpu00.commit.committed_per_cycle::6     32676544      0.72%     96.17% # Number of insts commited each cycle
system.cpu00.commit.committed_per_cycle::7       315102      0.01%     96.18% # Number of insts commited each cycle
system.cpu00.commit.committed_per_cycle::8    172256052      3.82%    100.00% # Number of insts commited each cycle
system.cpu00.commit.committed_per_cycle::overflows            0      0.00%    100.00% # Number of insts commited each cycle
system.cpu00.commit.committed_per_cycle::min_value            0                       # Number of insts commited each cycle
system.cpu00.commit.committed_per_cycle::max_value            8                       # Number of insts commited each cycle
system.cpu00.commit.committed_per_cycle::total   4508426575                       # Number of insts commited each cycle
system.cpu00.commit.fp_insts                 19211868                       # Number of committed floating point instructions.
system.cpu00.commit.function_calls           33673959                       # Number of function calls committed.
system.cpu00.commit.int_insts              2226606724                       # Number of committed integer instructions.
system.cpu00.commit.loads                   314187757                       # Number of loads committed
system.cpu00.commit.membars                    107086                       # Number of memory barriers committed
system.cpu00.commit.op_class_0::No_OpClass     26595082      1.18%      1.18% # Class of committed instruction
system.cpu00.commit.op_class_0::IntAlu     1611430336     71.43%     72.61% # Class of committed instruction
system.cpu00.commit.op_class_0::IntMult          8209      0.00%     72.61% # Class of committed instruction
system.cpu00.commit.op_class_0::IntDiv      141086991      6.25%     78.86% # Class of committed instruction
system.cpu00.commit.op_class_0::FloatAdd         8214      0.00%     78.86% # Class of committed instruction
system.cpu00.commit.op_class_0::FloatCmp            0      0.00%     78.86% # Class of committed instruction
system.cpu00.commit.op_class_0::FloatCvt            0      0.00%     78.86% # Class of committed instruction
system.cpu00.commit.op_class_0::FloatMult            0      0.00%     78.86% # Class of committed instruction
system.cpu00.commit.op_class_0::FloatMultAcc            0      0.00%     78.86% # Class of committed instruction
system.cpu00.commit.op_class_0::FloatDiv            0      0.00%     78.86% # Class of committed instruction
system.cpu00.commit.op_class_0::FloatMisc            0      0.00%     78.86% # Class of committed instruction
system.cpu00.commit.op_class_0::FloatSqrt            0      0.00%     78.86% # Class of committed instruction
system.cpu00.commit.op_class_0::SimdAdd             0      0.00%     78.86% # Class of committed instruction
system.cpu00.commit.op_class_0::SimdAddAcc            0      0.00%     78.86% # Class of committed instruction
system.cpu00.commit.op_class_0::SimdAlu       1572878      0.07%     78.93% # Class of committed instruction
system.cpu00.commit.op_class_0::SimdCmp             0      0.00%     78.93% # Class of committed instruction
system.cpu00.commit.op_class_0::SimdCvt        524292      0.02%     78.95% # Class of committed instruction
system.cpu00.commit.op_class_0::SimdMisc        57488      0.00%     78.96% # Class of committed instruction
system.cpu00.commit.op_class_0::SimdMult            0      0.00%     78.96% # Class of committed instruction
system.cpu00.commit.op_class_0::SimdMultAcc            0      0.00%     78.96% # Class of committed instruction
system.cpu00.commit.op_class_0::SimdShift            6      0.00%     78.96% # Class of committed instruction
system.cpu00.commit.op_class_0::SimdShiftAcc            0      0.00%     78.96% # Class of committed instruction
system.cpu00.commit.op_class_0::SimdDiv             0      0.00%     78.96% # Class of committed instruction
system.cpu00.commit.op_class_0::SimdSqrt            0      0.00%     78.96% # Class of committed instruction
system.cpu00.commit.op_class_0::SimdFloatAdd            0      0.00%     78.96% # Class of committed instruction
system.cpu00.commit.op_class_0::SimdFloatAlu            0      0.00%     78.96% # Class of committed instruction
system.cpu00.commit.op_class_0::SimdFloatCmp            0      0.00%     78.96% # Class of committed instruction
system.cpu00.commit.op_class_0::SimdFloatCvt            0      0.00%     78.96% # Class of committed instruction
system.cpu00.commit.op_class_0::SimdFloatDiv            0      0.00%     78.96% # Class of committed instruction
system.cpu00.commit.op_class_0::SimdFloatMisc            0      0.00%     78.96% # Class of committed instruction
system.cpu00.commit.op_class_0::SimdFloatMult            0      0.00%     78.96% # Class of committed instruction
system.cpu00.commit.op_class_0::SimdFloatMultAcc            0      0.00%     78.96% # Class of committed instruction
system.cpu00.commit.op_class_0::SimdFloatSqrt            0      0.00%     78.96% # Class of committed instruction
system.cpu00.commit.op_class_0::SimdReduceAdd            0      0.00%     78.96% # Class of committed instruction
system.cpu00.commit.op_class_0::SimdReduceAlu            0      0.00%     78.96% # Class of committed instruction
system.cpu00.commit.op_class_0::SimdReduceCmp            0      0.00%     78.96% # Class of committed instruction
system.cpu00.commit.op_class_0::SimdFloatReduceAdd            0      0.00%     78.96% # Class of committed instruction
system.cpu00.commit.op_class_0::SimdFloatReduceCmp            0      0.00%     78.96% # Class of committed instruction
system.cpu00.commit.op_class_0::SimdAes             0      0.00%     78.96% # Class of committed instruction
system.cpu00.commit.op_class_0::SimdAesMix            0      0.00%     78.96% # Class of committed instruction
system.cpu00.commit.op_class_0::SimdSha1Hash            0      0.00%     78.96% # Class of committed instruction
system.cpu00.commit.op_class_0::SimdSha1Hash2            0      0.00%     78.96% # Class of committed instruction
system.cpu00.commit.op_class_0::SimdSha256Hash            0      0.00%     78.96% # Class of committed instruction
system.cpu00.commit.op_class_0::SimdSha256Hash2            0      0.00%     78.96% # Class of committed instruction
system.cpu00.commit.op_class_0::SimdShaSigma2            0      0.00%     78.96% # Class of committed instruction
system.cpu00.commit.op_class_0::SimdShaSigma3            0      0.00%     78.96% # Class of committed instruction
system.cpu00.commit.op_class_0::SimdPredAlu            0      0.00%     78.96% # Class of committed instruction
system.cpu00.commit.op_class_0::MemRead     305848862     13.56%     92.51% # Class of committed instruction
system.cpu00.commit.op_class_0::MemWrite    152369032      6.75%     99.27% # Class of committed instruction
system.cpu00.commit.op_class_0::FloatMemRead      8338895      0.37%     99.64% # Class of committed instruction
system.cpu00.commit.op_class_0::FloatMemWrite      8177582      0.36%    100.00% # Class of committed instruction
system.cpu00.commit.op_class_0::IprAccess            0      0.00%    100.00% # Class of committed instruction
system.cpu00.commit.op_class_0::InstPrefetch            0      0.00%    100.00% # Class of committed instruction
system.cpu00.commit.op_class_0::total      2256017867                       # Class of committed instruction
system.cpu00.commit.refs                    474734371                       # Number of memory references committed
system.cpu00.commit.swp_count                       0                       # Number of s/w prefetches committed
system.cpu00.commit.vec_insts                       0                       # Number of committed Vector instructions.
system.cpu00.committedInsts                 889842601                       # Number of Instructions Simulated
system.cpu00.committedOps                  2256017867                       # Number of Ops (including micro ops) Simulated
system.cpu00.cpi                             5.160375                       # CPI: Cycles Per Instruction
system.cpu00.cpi_total                       5.160375                       # CPI: Total CPI of All Threads
system.cpu00.decode.BlockedCycles          4097245743                       # Number of cycles decode is blocked
system.cpu00.decode.DecodedInsts           2976994015                       # Number of instructions handled by decode
system.cpu00.decode.IdleCycles               98316078                       # Number of cycles decode is idle
system.cpu00.decode.RunCycles               253755993                       # Number of cycles decode is running
system.cpu00.decode.SquashCycles              7223432                       # Number of cycles decode is squashing
system.cpu00.decode.UnblockCycles           135286678                       # Number of cycles decode is unblocking
system.cpu00.dtb.rdAccesses                 348396954                       # TLB accesses on read requests
system.cpu00.dtb.rdMisses                    17699148                       # TLB misses on read requests
system.cpu00.dtb.walker.pwrStateResidencyTicks::UNDEFINED 2842138133883                       # Cumulative time (in ticks) in various power states
system.cpu00.dtb.wrAccesses                 181781732                       # TLB accesses on write requests
system.cpu00.dtb.wrMisses                    14587164                       # TLB misses on write requests
system.cpu00.fetch.Branches                 244623633                       # Number of branches that fetch encountered
system.cpu00.fetch.CacheLines               116209128                       # Number of cache lines fetched
system.cpu00.fetch.Cycles                  4468209685                       # Number of cycles fetch has run and was not squashing or blocked
system.cpu00.fetch.IcacheSquashes               54665                       # Number of outstanding Icache misses that were squashed
system.cpu00.fetch.IcacheWaitRetryStallCycles         7405                       # Number of stall cycles due to full MSHR
system.cpu00.fetch.Insts                   1274971356                       # Number of instructions fetch has processed
system.cpu00.fetch.MiscStallCycles              10347                       # Number of cycles fetch has spent waiting on interrupts, or bad addresses, or out of MSHRs
system.cpu00.fetch.PendingQuiesceStallCycles           39                       # Number of stall cycles due to pending quiesce instructions
system.cpu00.fetch.PendingTrapStallCycles         7290                       # Number of stall cycles due to pending traps
system.cpu00.fetch.SquashCycles              14446864                       # Number of cycles fetch has spent squashing
system.cpu00.fetch.TlbCycles                       52                       # Number of cycles fetch has spent waiting for tlb
system.cpu00.fetch.branchRate                0.053273                       # Number of branch fetches per cycle
system.cpu00.fetch.icacheStallCycles        116369674                       # Number of cycles fetch is stalled on an Icache miss
system.cpu00.fetch.predictedBranches        150270776                       # Number of branches that fetch has predicted taken
system.cpu00.fetch.rate                      0.277655                       # Number of inst fetches per cycle
system.cpu00.fetch.rateDist::samples       4591827924                       # Number of instructions fetched each cycle (Total)
system.cpu00.fetch.rateDist::mean            0.719580                       # Number of instructions fetched each cycle (Total)
system.cpu00.fetch.rateDist::stdev           2.177559                       # Number of instructions fetched each cycle (Total)
system.cpu00.fetch.rateDist::underflows             0      0.00%      0.00% # Number of instructions fetched each cycle (Total)
system.cpu00.fetch.rateDist::0             4098605424     89.26%     89.26% # Number of instructions fetched each cycle (Total)
system.cpu00.fetch.rateDist::1                9246727      0.20%     89.46% # Number of instructions fetched each cycle (Total)
system.cpu00.fetch.rateDist::2               29953730      0.65%     90.11% # Number of instructions fetched each cycle (Total)
system.cpu00.fetch.rateDist::3               21414921      0.47%     90.58% # Number of instructions fetched each cycle (Total)
system.cpu00.fetch.rateDist::4               14255336      0.31%     90.89% # Number of instructions fetched each cycle (Total)
system.cpu00.fetch.rateDist::5               40136113      0.87%     91.76% # Number of instructions fetched each cycle (Total)
system.cpu00.fetch.rateDist::6               40726352      0.89%     92.65% # Number of instructions fetched each cycle (Total)
system.cpu00.fetch.rateDist::7               31183978      0.68%     93.33% # Number of instructions fetched each cycle (Total)
system.cpu00.fetch.rateDist::8              306305343      6.67%    100.00% # Number of instructions fetched each cycle (Total)
system.cpu00.fetch.rateDist::overflows              0      0.00%    100.00% # Number of instructions fetched each cycle (Total)
system.cpu00.fetch.rateDist::min_value              0                       # Number of instructions fetched each cycle (Total)
system.cpu00.fetch.rateDist::max_value              8                       # Number of instructions fetched each cycle (Total)
system.cpu00.fetch.rateDist::total         4591827924                       # Number of instructions fetched each cycle (Total)
system.cpu00.fp_regfile_reads                14128110                       # number of floating regfile reads
system.cpu00.fp_regfile_writes               11036310                       # number of floating regfile writes
system.cpu00.idleCycles                         93925                       # Total number of cycles that the CPU has spent unscheduled due to idling
system.cpu00.iew.branchMispredicts            7263045                       # Number of branch mispredicts detected at execute
system.cpu00.iew.exec_branches              196554355                       # Number of branches executed
system.cpu00.iew.exec_nop                           0                       # number of nop insts executed
system.cpu00.iew.exec_rate                   0.614511                       # Inst execution rate
system.cpu00.iew.exec_refs                  822884899                       # number of memory reference insts executed
system.cpu00.iew.exec_stores                181781397                       # Number of stores executed
system.cpu00.iew.exec_swp                           0                       # number of swp insts executed
system.cpu00.iew.iewBlockCycles            2101083918                       # Number of cycles IEW is blocking
system.cpu00.iew.iewDispLoadInsts           383007101                       # Number of dispatched load instructions
system.cpu00.iew.iewDispNonSpecInsts          3951044                       # Number of dispatched non-speculative instructions
system.cpu00.iew.iewDispSquashedInsts           40387                       # Number of squashed instructions skipped by dispatch
system.cpu00.iew.iewDispStoreInsts          195716591                       # Number of dispatched store instructions
system.cpu00.iew.iewDispatchedInsts        2919619388                       # Number of instructions dispatched to IQ
system.cpu00.iew.iewExecLoadInsts           641103502                       # Number of load instructions executed
system.cpu00.iew.iewExecSquashedInsts          506540                       # Number of squashed instructions skipped in execute
system.cpu00.iew.iewExecutedInsts          2821787111                       # Number of executed instructions
system.cpu00.iew.iewIQFullEvents             11757288                       # Number of times the IQ has become full, causing a stall
system.cpu00.iew.iewIdleCycles                      0                       # Number of cycles IEW is idle
system.cpu00.iew.iewLSQFullEvents           231712625                       # Number of times the LSQ has become full, causing a stall
system.cpu00.iew.iewSquashCycles              7223432                       # Number of cycles IEW is squashing
system.cpu00.iew.iewUnblockCycles           273690899                       # Number of cycles IEW is unblocking
system.cpu00.iew.lsq.thread0.blockedLoads            0                       # Number of blocked loads due to partial load-store forwarding
system.cpu00.iew.lsq.thread0.cacheBlocked     90273277                       # Number of times an access to memory failed due to the cache being blocked
system.cpu00.iew.lsq.thread0.forwLoads      121266467                       # Number of loads that had data forwarded from stores
system.cpu00.iew.lsq.thread0.ignoredResponses          975                       # Number of memory responses ignored because the instruction is squashed
system.cpu00.iew.lsq.thread0.invAddrLoads            0                       # Number of loads ignored due to an invalid address
system.cpu00.iew.lsq.thread0.invAddrSwpfs            0                       # Number of software prefetches ignored due to an invalid address
system.cpu00.iew.lsq.thread0.memOrderViolation         5774                       # Number of memory ordering violations
system.cpu00.iew.lsq.thread0.rescheduledLoads           95                       # Number of loads that were rescheduled
system.cpu00.iew.lsq.thread0.squashedLoads     68819345                       # Number of loads squashed
system.cpu00.iew.lsq.thread0.squashedStores     35169977                       # Number of stores squashed
system.cpu00.iew.memOrderViolationEvents         5774                       # Number of memory order violations
system.cpu00.iew.predictedNotTakenIncorrect      4683332                       # Number of branches that were predicted not taken incorrectly
system.cpu00.iew.predictedTakenIncorrect      2579713                       # Number of branches that were predicted taken incorrectly
system.cpu00.iew.wb_consumers              4077866175                       # num instructions consuming a value
system.cpu00.iew.wb_count                  2528484523                       # cumulative count of insts written-back
system.cpu00.iew.wb_fanout                   0.445973                       # average fanout of values written-back
system.cpu00.iew.wb_producers              1818617931                       # num instructions producing a value
system.cpu00.iew.wb_rate                     0.550638                       # insts written-back per cycle
system.cpu00.iew.wb_sent                   2528556418                       # cumulative count of insts sent to commit
system.cpu00.int_regfile_reads             5171383474                       # number of integer regfile reads
system.cpu00.int_regfile_writes            2432348504                       # number of integer regfile writes
system.cpu00.interrupts.pwrStateResidencyTicks::UNDEFINED 2842138133883                       # Cumulative time (in ticks) in various power states
system.cpu00.ipc                             0.193784                       # IPC: Instructions Per Cycle
system.cpu00.ipc_total                       0.193784                       # IPC: Total IPC of All Threads
system.cpu00.iq.FU_type_0::No_OpClass        26636626      0.94%      0.94% # Type of FU issued
system.cpu00.iq.FU_type_0::IntAlu          1821814473     64.55%     65.49% # Type of FU issued
system.cpu00.iq.FU_type_0::IntMult               8480      0.00%     65.49% # Type of FU issued
system.cpu00.iq.FU_type_0::IntDiv           148627633      5.27%     70.76% # Type of FU issued
system.cpu00.iq.FU_type_0::FloatAdd              8372      0.00%     70.76% # Type of FU issued
system.cpu00.iq.FU_type_0::FloatCmp                 0      0.00%     70.76% # Type of FU issued
system.cpu00.iq.FU_type_0::FloatCvt                 0      0.00%     70.76% # Type of FU issued
system.cpu00.iq.FU_type_0::FloatMult                0      0.00%     70.76% # Type of FU issued
system.cpu00.iq.FU_type_0::FloatMultAcc             0      0.00%     70.76% # Type of FU issued
system.cpu00.iq.FU_type_0::FloatDiv                 0      0.00%     70.76% # Type of FU issued
system.cpu00.iq.FU_type_0::FloatMisc                0      0.00%     70.76% # Type of FU issued
system.cpu00.iq.FU_type_0::FloatSqrt                0      0.00%     70.76% # Type of FU issued
system.cpu00.iq.FU_type_0::SimdAdd                  0      0.00%     70.76% # Type of FU issued
system.cpu00.iq.FU_type_0::SimdAddAcc               0      0.00%     70.76% # Type of FU issued
system.cpu00.iq.FU_type_0::SimdAlu            1573028      0.06%     70.82% # Type of FU issued
system.cpu00.iq.FU_type_0::SimdCmp                  0      0.00%     70.82% # Type of FU issued
system.cpu00.iq.FU_type_0::SimdCvt             524298      0.02%     70.84% # Type of FU issued
system.cpu00.iq.FU_type_0::SimdMisc             57615      0.00%     70.84% # Type of FU issued
system.cpu00.iq.FU_type_0::SimdMult                 0      0.00%     70.84% # Type of FU issued
system.cpu00.iq.FU_type_0::SimdMultAcc              0      0.00%     70.84% # Type of FU issued
system.cpu00.iq.FU_type_0::SimdShift                8      0.00%     70.84% # Type of FU issued
system.cpu00.iq.FU_type_0::SimdShiftAcc             0      0.00%     70.84% # Type of FU issued
system.cpu00.iq.FU_type_0::SimdDiv                  0      0.00%     70.84% # Type of FU issued
system.cpu00.iq.FU_type_0::SimdSqrt                 0      0.00%     70.84% # Type of FU issued
system.cpu00.iq.FU_type_0::SimdFloatAdd             0      0.00%     70.84% # Type of FU issued
system.cpu00.iq.FU_type_0::SimdFloatAlu             0      0.00%     70.84% # Type of FU issued
system.cpu00.iq.FU_type_0::SimdFloatCmp             0      0.00%     70.84% # Type of FU issued
system.cpu00.iq.FU_type_0::SimdFloatCvt             3      0.00%     70.84% # Type of FU issued
system.cpu00.iq.FU_type_0::SimdFloatDiv             7      0.00%     70.84% # Type of FU issued
system.cpu00.iq.FU_type_0::SimdFloatMisc            0      0.00%     70.84% # Type of FU issued
system.cpu00.iq.FU_type_0::SimdFloatMult           11      0.00%     70.84% # Type of FU issued
system.cpu00.iq.FU_type_0::SimdFloatMultAcc            0      0.00%     70.84% # Type of FU issued
system.cpu00.iq.FU_type_0::SimdFloatSqrt            6      0.00%     70.84% # Type of FU issued
system.cpu00.iq.FU_type_0::SimdReduceAdd            0      0.00%     70.84% # Type of FU issued
system.cpu00.iq.FU_type_0::SimdReduceAlu            0      0.00%     70.84% # Type of FU issued
system.cpu00.iq.FU_type_0::SimdReduceCmp            0      0.00%     70.84% # Type of FU issued
system.cpu00.iq.FU_type_0::SimdFloatReduceAdd            0      0.00%     70.84% # Type of FU issued
system.cpu00.iq.FU_type_0::SimdFloatReduceCmp            0      0.00%     70.84% # Type of FU issued
system.cpu00.iq.FU_type_0::SimdAes                  0      0.00%     70.84% # Type of FU issued
system.cpu00.iq.FU_type_0::SimdAesMix               0      0.00%     70.84% # Type of FU issued
system.cpu00.iq.FU_type_0::SimdSha1Hash             0      0.00%     70.84% # Type of FU issued
system.cpu00.iq.FU_type_0::SimdSha1Hash2            0      0.00%     70.84% # Type of FU issued
system.cpu00.iq.FU_type_0::SimdSha256Hash            0      0.00%     70.84% # Type of FU issued
system.cpu00.iq.FU_type_0::SimdSha256Hash2            0      0.00%     70.84% # Type of FU issued
system.cpu00.iq.FU_type_0::SimdShaSigma2            0      0.00%     70.84% # Type of FU issued
system.cpu00.iq.FU_type_0::SimdShaSigma3            0      0.00%     70.84% # Type of FU issued
system.cpu00.iq.FU_type_0::SimdPredAlu              0      0.00%     70.84% # Type of FU issued
system.cpu00.iq.FU_type_0::MemRead          587084914     20.80%     91.64% # Type of FU issued
system.cpu00.iq.FU_type_0::MemWrite         173621673      6.15%     97.79% # Type of FU issued
system.cpu00.iq.FU_type_0::FloatMemRead      54077591      1.92%     99.71% # Type of FU issued
system.cpu00.iq.FU_type_0::FloatMemWrite      8258914      0.29%    100.00% # Type of FU issued
system.cpu00.iq.FU_type_0::IprAccess                0      0.00%    100.00% # Type of FU issued
system.cpu00.iq.FU_type_0::InstPrefetch             0      0.00%    100.00% # Type of FU issued
system.cpu00.iq.FU_type_0::total           2822293652                       # Type of FU issued
system.cpu00.iq.fp_alu_accesses              78334137                       # Number of floating point alu accesses
system.cpu00.iq.fp_inst_queue_reads         143373349                       # Number of floating instruction queue reads
system.cpu00.iq.fp_inst_queue_wakeup_accesses     19272286                       # Number of floating instruction queue wakeup accesses
system.cpu00.iq.fp_inst_queue_writes         19432705                       # Number of floating instruction queue writes
system.cpu00.iq.fu_busy_cnt                  56768705                       # FU busy when requested
system.cpu00.iq.fu_busy_rate                 0.020114                       # FU busy rate (busy events/executed inst)
system.cpu00.iq.fu_full::No_OpClass                 0      0.00%      0.00% # attempts to use FU when none available
system.cpu00.iq.fu_full::IntAlu              20929548     36.87%     36.87% # attempts to use FU when none available
system.cpu00.iq.fu_full::IntMult                    0      0.00%     36.87% # attempts to use FU when none available
system.cpu00.iq.fu_full::IntDiv                     0      0.00%     36.87% # attempts to use FU when none available
system.cpu00.iq.fu_full::FloatAdd                   0      0.00%     36.87% # attempts to use FU when none available
system.cpu00.iq.fu_full::FloatCmp                   0      0.00%     36.87% # attempts to use FU when none available
system.cpu00.iq.fu_full::FloatCvt                   0      0.00%     36.87% # attempts to use FU when none available
system.cpu00.iq.fu_full::FloatMult                  0      0.00%     36.87% # attempts to use FU when none available
system.cpu00.iq.fu_full::FloatMultAcc               0      0.00%     36.87% # attempts to use FU when none available
system.cpu00.iq.fu_full::FloatDiv                   0      0.00%     36.87% # attempts to use FU when none available
system.cpu00.iq.fu_full::FloatMisc                  0      0.00%     36.87% # attempts to use FU when none available
system.cpu00.iq.fu_full::FloatSqrt                  0      0.00%     36.87% # attempts to use FU when none available
system.cpu00.iq.fu_full::SimdAdd                    0      0.00%     36.87% # attempts to use FU when none available
system.cpu00.iq.fu_full::SimdAddAcc                 0      0.00%     36.87% # attempts to use FU when none available
system.cpu00.iq.fu_full::SimdAlu                   10      0.00%     36.87% # attempts to use FU when none available
system.cpu00.iq.fu_full::SimdCmp                    0      0.00%     36.87% # attempts to use FU when none available
system.cpu00.iq.fu_full::SimdCvt                    0      0.00%     36.87% # attempts to use FU when none available
system.cpu00.iq.fu_full::SimdMisc                   0      0.00%     36.87% # attempts to use FU when none available
system.cpu00.iq.fu_full::SimdMult                   0      0.00%     36.87% # attempts to use FU when none available
system.cpu00.iq.fu_full::SimdMultAcc                0      0.00%     36.87% # attempts to use FU when none available
system.cpu00.iq.fu_full::SimdShift                  0      0.00%     36.87% # attempts to use FU when none available
system.cpu00.iq.fu_full::SimdShiftAcc               0      0.00%     36.87% # attempts to use FU when none available
system.cpu00.iq.fu_full::SimdDiv                    0      0.00%     36.87% # attempts to use FU when none available
system.cpu00.iq.fu_full::SimdSqrt                   0      0.00%     36.87% # attempts to use FU when none available
system.cpu00.iq.fu_full::SimdFloatAdd               0      0.00%     36.87% # attempts to use FU when none available
system.cpu00.iq.fu_full::SimdFloatAlu               0      0.00%     36.87% # attempts to use FU when none available
system.cpu00.iq.fu_full::SimdFloatCmp               0      0.00%     36.87% # attempts to use FU when none available
system.cpu00.iq.fu_full::SimdFloatCvt               0      0.00%     36.87% # attempts to use FU when none available
system.cpu00.iq.fu_full::SimdFloatDiv               0      0.00%     36.87% # attempts to use FU when none available
system.cpu00.iq.fu_full::SimdFloatMisc              0      0.00%     36.87% # attempts to use FU when none available
system.cpu00.iq.fu_full::SimdFloatMult              0      0.00%     36.87% # attempts to use FU when none available
system.cpu00.iq.fu_full::SimdFloatMultAcc            0      0.00%     36.87% # attempts to use FU when none available
system.cpu00.iq.fu_full::SimdFloatSqrt              0      0.00%     36.87% # attempts to use FU when none available
system.cpu00.iq.fu_full::SimdReduceAdd              0      0.00%     36.87% # attempts to use FU when none available
system.cpu00.iq.fu_full::SimdReduceAlu              0      0.00%     36.87% # attempts to use FU when none available
system.cpu00.iq.fu_full::SimdReduceCmp              0      0.00%     36.87% # attempts to use FU when none available
system.cpu00.iq.fu_full::SimdFloatReduceAdd            0      0.00%     36.87% # attempts to use FU when none available
system.cpu00.iq.fu_full::SimdFloatReduceCmp            0      0.00%     36.87% # attempts to use FU when none available
system.cpu00.iq.fu_full::SimdAes                    0      0.00%     36.87% # attempts to use FU when none available
system.cpu00.iq.fu_full::SimdAesMix                 0      0.00%     36.87% # attempts to use FU when none available
system.cpu00.iq.fu_full::SimdSha1Hash               0      0.00%     36.87% # attempts to use FU when none available
system.cpu00.iq.fu_full::SimdSha1Hash2              0      0.00%     36.87% # attempts to use FU when none available
system.cpu00.iq.fu_full::SimdSha256Hash             0      0.00%     36.87% # attempts to use FU when none available
system.cpu00.iq.fu_full::SimdSha256Hash2            0      0.00%     36.87% # attempts to use FU when none available
system.cpu00.iq.fu_full::SimdShaSigma2              0      0.00%     36.87% # attempts to use FU when none available
system.cpu00.iq.fu_full::SimdShaSigma3              0      0.00%     36.87% # attempts to use FU when none available
system.cpu00.iq.fu_full::SimdPredAlu                0      0.00%     36.87% # attempts to use FU when none available
system.cpu00.iq.fu_full::MemRead             20107159     35.42%     72.29% # attempts to use FU when none available
system.cpu00.iq.fu_full::MemWrite             2430242      4.28%     76.57% # attempts to use FU when none available
system.cpu00.iq.fu_full::FloatMemRead        13239100     23.32%     99.89% # attempts to use FU when none available
system.cpu00.iq.fu_full::FloatMemWrite          62646      0.11%    100.00% # attempts to use FU when none available
system.cpu00.iq.fu_full::IprAccess                  0      0.00%    100.00% # attempts to use FU when none available
system.cpu00.iq.fu_full::InstPrefetch               0      0.00%    100.00% # attempts to use FU when none available
system.cpu00.iq.int_alu_accesses           2774091594                       # Number of integer alu accesses
system.cpu00.iq.int_inst_queue_reads      10149924509                       # Number of integer instruction queue reads
system.cpu00.iq.int_inst_queue_wakeup_accesses   2509212237                       # Number of integer instruction queue wakeup accesses
system.cpu00.iq.int_inst_queue_writes      3563793936                       # Number of integer instruction queue writes
system.cpu00.iq.iqInstsAdded               2915532466                       # Number of instructions added to the IQ (excludes non-spec)
system.cpu00.iq.iqInstsIssued              2822293652                       # Number of instructions issued
system.cpu00.iq.iqNonSpecInstsAdded           4086922                       # Number of non-speculative instructions added to the IQ
system.cpu00.iq.iqSquashedInstsExamined     663601515                       # Number of squashed instructions iterated over during squash; mainly for profiling
system.cpu00.iq.iqSquashedInstsIssued          113926                       # Number of squashed instructions issued
system.cpu00.iq.iqSquashedNonSpecRemoved        36597                       # Number of squashed non-spec instructions that were removed
system.cpu00.iq.iqSquashedOperandsExamined   1628287878                       # Number of squashed operands that are examined and possibly removed from graph
system.cpu00.iq.issued_per_cycle::samples   4591827924                       # Number of insts issued each cycle
system.cpu00.iq.issued_per_cycle::mean       0.614634                       # Number of insts issued each cycle
system.cpu00.iq.issued_per_cycle::stdev      1.465318                       # Number of insts issued each cycle
system.cpu00.iq.issued_per_cycle::underflows            0      0.00%      0.00% # Number of insts issued each cycle
system.cpu00.iq.issued_per_cycle::0        3597289424     78.34%     78.34% # Number of insts issued each cycle
system.cpu00.iq.issued_per_cycle::1         333100755      7.25%     85.60% # Number of insts issued each cycle
system.cpu00.iq.issued_per_cycle::2         190067247      4.14%     89.73% # Number of insts issued each cycle
system.cpu00.iq.issued_per_cycle::3         144808942      3.15%     92.89% # Number of insts issued each cycle
system.cpu00.iq.issued_per_cycle::4         159362507      3.47%     96.36% # Number of insts issued each cycle
system.cpu00.iq.issued_per_cycle::5          58649703      1.28%     97.64% # Number of insts issued each cycle
system.cpu00.iq.issued_per_cycle::6          50564557      1.10%     98.74% # Number of insts issued each cycle
system.cpu00.iq.issued_per_cycle::7          23332620      0.51%     99.25% # Number of insts issued each cycle
system.cpu00.iq.issued_per_cycle::8          34652169      0.75%    100.00% # Number of insts issued each cycle
system.cpu00.iq.issued_per_cycle::overflows            0      0.00%    100.00% # Number of insts issued each cycle
system.cpu00.iq.issued_per_cycle::min_value            0                       # Number of insts issued each cycle
system.cpu00.iq.issued_per_cycle::max_value            8                       # Number of insts issued each cycle
system.cpu00.iq.issued_per_cycle::total    4591827924                       # Number of insts issued each cycle
system.cpu00.iq.rate                         0.614621                       # Inst issue rate
system.cpu00.iq.vec_alu_accesses                    0                       # Number of vector alu accesses
system.cpu00.iq.vec_inst_queue_reads                0                       # Number of vector instruction queue reads
system.cpu00.iq.vec_inst_queue_wakeup_accesses            0                       # Number of vector instruction queue wakeup accesses
system.cpu00.iq.vec_inst_queue_writes               0                       # Number of vector instruction queue writes
system.cpu00.itb.rdAccesses                         0                       # TLB accesses on read requests
system.cpu00.itb.rdMisses                           0                       # TLB misses on read requests
system.cpu00.itb.walker.pwrStateResidencyTicks::UNDEFINED 2842138133883                       # Cumulative time (in ticks) in various power states
system.cpu00.itb.wrAccesses                 116209808                       # TLB accesses on write requests
system.cpu00.itb.wrMisses                         713                       # TLB misses on write requests
system.cpu00.memDep0.conflictingLoads        16635859                       # Number of conflicting loads.
system.cpu00.memDep0.conflictingStores       34947317                       # Number of conflicting stores.
system.cpu00.memDep0.insertedLoads          383007101                       # Number of loads inserted to the mem dependence unit.
system.cpu00.memDep0.insertedStores         195716591                       # Number of stores inserted to the mem dependence unit.
system.cpu00.misc_regfile_reads            1140138551                       # number of misc regfile reads
system.cpu00.numCycles                     4591921849                       # number of cpu cycles simulated
system.cpu00.numWorkItemsCompleted                  0                       # number of work items this cpu completed
system.cpu00.numWorkItemsStarted                    0                       # number of work items this cpu started
system.cpu00.pwrStateResidencyTicks::ON  2842138133883                       # Cumulative time (in ticks) in various power states
system.cpu00.rename.BlockCycles            2596086504                       # Number of cycles rename is blocking
system.cpu00.rename.CommittedMaps          2758120070                       # Number of HB maps that are committed
system.cpu00.rename.FullRegisterEvents              1                       # Number of times there has been no free registers
system.cpu00.rename.IQFullEvents            427397322                       # Number of times rename has blocked due to IQ full
system.cpu00.rename.IdleCycles              145302510                       # Number of cycles rename is idle
system.cpu00.rename.LQFullEvents            185499208                       # Number of times rename has blocked due to LQ full
system.cpu00.rename.ROBFullEvents           156461998                       # Number of times rename has blocked due to ROB full
system.cpu00.rename.RenameLookups          8763611748                       # Number of register rename lookups that rename has made
system.cpu00.rename.RenamedInsts           2955490365                       # Number of instructions processed by rename
system.cpu00.rename.RenamedOperands        3662897524                       # Number of destination operands rename has renamed
system.cpu00.rename.RunCycles               321496900                       # Number of cycles rename is running
system.cpu00.rename.SQFullEvents            895899985                       # Number of times rename has blocked due to SQ full
system.cpu00.rename.SquashCycles              7223432                       # Number of cycles rename is squashing
system.cpu00.rename.UnblockCycles          1521531729                       # Number of cycles rename is unblocking
system.cpu00.rename.UndoneMaps              904777452                       # Number of HB maps that are undone due to squashing
system.cpu00.rename.fp_rename_lookups        14180442                       # Number of floating rename lookups
system.cpu00.rename.int_rename_lookups     5631364752                       # Number of integer rename lookups
system.cpu00.rename.serializeStallCycles       186849                       # count of cycles rename stalled for serializing inst
system.cpu00.rename.serializingInsts             1540                       # count of serializing insts renamed
system.cpu00.rename.skidInsts               853181190                       # count of insts added to the skid buffer
system.cpu00.rename.tempSerializingInsts         1542                       # count of temporary serializing insts renamed
system.cpu00.rob.rob_reads                 7255869003                       # The number of ROB reads
system.cpu00.rob.rob_writes                5922812909                       # The number of ROB writes
system.cpu00.timesIdled                           621                       # Number of times that the entire CPU went into an idle state and unscheduled itself
system.cpu00.workload.numSyscalls                1144                       # Number of system calls
system.cpu01.apic_clk_domain.clock               5328                       # Clock period in ticks
system.cpu01.branchPred.BTBCorrect                  0                       # Number of correct BTB predictions (this stat may not work properly.
system.cpu01.branchPred.BTBHitPct            0.000000                       # BTB Hit Percentage
system.cpu01.branchPred.BTBHits                     0                       # Number of BTB hits
system.cpu01.branchPred.BTBLookups            1680199                       # Number of BTB lookups
system.cpu01.branchPred.RASInCorrect               55                       # Number of incorrect RAS predictions.
system.cpu01.branchPred.condIncorrect             286                       # Number of conditional branches incorrect
system.cpu01.branchPred.condPredicted         2159702                       # Number of conditional branches predicted
system.cpu01.branchPred.indirectHits          1209886                       # Number of indirect target hits.
system.cpu01.branchPred.indirectLookups       1680199                       # Number of indirect predictor lookups.
system.cpu01.branchPred.indirectMisses         470313                       # Number of indirect misses.
system.cpu01.branchPred.lookups               2159702                       # Number of BP lookups
system.cpu01.branchPred.usedRAS                   727                       # Number of times the RAS was used to get a target.
system.cpu01.branchPredindirectMispredicted          170                       # Number of mispredicted indirect branches.
system.cpu01.cc_regfile_reads                10787551                       # number of cc regfile reads
system.cpu01.cc_regfile_writes                7255982                       # number of cc regfile writes
system.cpu01.commit.amos                            0                       # Number of atomic instructions committed
system.cpu01.commit.branchMispredicts             792                       # The number of times a branch was mispredicted
system.cpu01.commit.branches                  2157206                       # Number of branches committed
system.cpu01.commit.bw_lim_events              136156                       # number cycles where commit BW limit reached
system.cpu01.commit.commitNonSpecStalls          1691                       # The number of times commit has been forced to stall to communicate backwards
system.cpu01.commit.commitSquashedInsts         12103                       # The number of squashed insts skipped by commit
system.cpu01.commit.committedInsts            9257897                       # Number of instructions committed
system.cpu01.commit.committedOps             16622096                       # Number of ops (including micro ops) committed
system.cpu01.commit.committed_per_cycle::samples     25324634                       # Number of insts commited each cycle
system.cpu01.commit.committed_per_cycle::mean     0.656361                       # Number of insts commited each cycle
system.cpu01.commit.committed_per_cycle::stdev     1.605549                       # Number of insts commited each cycle
system.cpu01.commit.committed_per_cycle::underflows            0      0.00%      0.00% # Number of insts commited each cycle
system.cpu01.commit.committed_per_cycle::0     20507120     80.98%     80.98% # Number of insts commited each cycle
system.cpu01.commit.committed_per_cycle::1      1272650      5.03%     86.00% # Number of insts commited each cycle
system.cpu01.commit.committed_per_cycle::2          767      0.00%     86.01% # Number of insts commited each cycle
system.cpu01.commit.committed_per_cycle::3      1465030      5.78%     91.79% # Number of insts commited each cycle
system.cpu01.commit.committed_per_cycle::4       928962      3.67%     95.46% # Number of insts commited each cycle
system.cpu01.commit.committed_per_cycle::5       409324      1.62%     97.07% # Number of insts commited each cycle
system.cpu01.commit.committed_per_cycle::6       131269      0.52%     97.59% # Number of insts commited each cycle
system.cpu01.commit.committed_per_cycle::7       473356      1.87%     99.46% # Number of insts commited each cycle
system.cpu01.commit.committed_per_cycle::8       136156      0.54%    100.00% # Number of insts commited each cycle
system.cpu01.commit.committed_per_cycle::overflows            0      0.00%    100.00% # Number of insts commited each cycle
system.cpu01.commit.committed_per_cycle::min_value            0                       # Number of insts commited each cycle
system.cpu01.commit.committed_per_cycle::max_value            8                       # Number of insts commited each cycle
system.cpu01.commit.committed_per_cycle::total     25324634                       # Number of insts commited each cycle
system.cpu01.commit.fp_insts                  3145787                       # Number of committed floating point instructions.
system.cpu01.commit.function_calls                601                       # Number of function calls committed.
system.cpu01.commit.int_insts                13053993                       # Number of committed integer instructions.
system.cpu01.commit.loads                     1476096                       # Number of loads committed
system.cpu01.commit.membars                      1124                       # Number of memory barriers committed
system.cpu01.commit.op_class_0::No_OpClass          558      0.00%      0.00% # Class of committed instruction
system.cpu01.commit.op_class_0::IntAlu       13045879     78.49%     78.49% # Class of committed instruction
system.cpu01.commit.op_class_0::IntMult             3      0.00%     78.49% # Class of committed instruction
system.cpu01.commit.op_class_0::IntDiv              7      0.00%     78.49% # Class of committed instruction
system.cpu01.commit.op_class_0::FloatAdd            1      0.00%     78.49% # Class of committed instruction
system.cpu01.commit.op_class_0::FloatCmp            0      0.00%     78.49% # Class of committed instruction
system.cpu01.commit.op_class_0::FloatCvt            0      0.00%     78.49% # Class of committed instruction
system.cpu01.commit.op_class_0::FloatMult            0      0.00%     78.49% # Class of committed instruction
system.cpu01.commit.op_class_0::FloatMultAcc            0      0.00%     78.49% # Class of committed instruction
system.cpu01.commit.op_class_0::FloatDiv            0      0.00%     78.49% # Class of committed instruction
system.cpu01.commit.op_class_0::FloatMisc            0      0.00%     78.49% # Class of committed instruction
system.cpu01.commit.op_class_0::FloatSqrt            0      0.00%     78.49% # Class of committed instruction
system.cpu01.commit.op_class_0::SimdAdd             0      0.00%     78.49% # Class of committed instruction
system.cpu01.commit.op_class_0::SimdAddAcc            0      0.00%     78.49% # Class of committed instruction
system.cpu01.commit.op_class_0::SimdAlu       1572878      9.46%     87.95% # Class of committed instruction
system.cpu01.commit.op_class_0::SimdCmp             0      0.00%     87.95% # Class of committed instruction
system.cpu01.commit.op_class_0::SimdCvt        524292      3.15%     91.11% # Class of committed instruction
system.cpu01.commit.op_class_0::SimdMisc            4      0.00%     91.11% # Class of committed instruction
system.cpu01.commit.op_class_0::SimdMult            0      0.00%     91.11% # Class of committed instruction
system.cpu01.commit.op_class_0::SimdMultAcc            0      0.00%     91.11% # Class of committed instruction
system.cpu01.commit.op_class_0::SimdShift            6      0.00%     91.11% # Class of committed instruction
system.cpu01.commit.op_class_0::SimdShiftAcc            0      0.00%     91.11% # Class of committed instruction
system.cpu01.commit.op_class_0::SimdDiv             0      0.00%     91.11% # Class of committed instruction
system.cpu01.commit.op_class_0::SimdSqrt            0      0.00%     91.11% # Class of committed instruction
system.cpu01.commit.op_class_0::SimdFloatAdd            0      0.00%     91.11% # Class of committed instruction
system.cpu01.commit.op_class_0::SimdFloatAlu            0      0.00%     91.11% # Class of committed instruction
system.cpu01.commit.op_class_0::SimdFloatCmp            0      0.00%     91.11% # Class of committed instruction
system.cpu01.commit.op_class_0::SimdFloatCvt            0      0.00%     91.11% # Class of committed instruction
system.cpu01.commit.op_class_0::SimdFloatDiv            0      0.00%     91.11% # Class of committed instruction
system.cpu01.commit.op_class_0::SimdFloatMisc            0      0.00%     91.11% # Class of committed instruction
system.cpu01.commit.op_class_0::SimdFloatMult            0      0.00%     91.11% # Class of committed instruction
system.cpu01.commit.op_class_0::SimdFloatMultAcc            0      0.00%     91.11% # Class of committed instruction
system.cpu01.commit.op_class_0::SimdFloatSqrt            0      0.00%     91.11% # Class of committed instruction
system.cpu01.commit.op_class_0::SimdReduceAdd            0      0.00%     91.11% # Class of committed instruction
system.cpu01.commit.op_class_0::SimdReduceAlu            0      0.00%     91.11% # Class of committed instruction
system.cpu01.commit.op_class_0::SimdReduceCmp            0      0.00%     91.11% # Class of committed instruction
system.cpu01.commit.op_class_0::SimdFloatReduceAdd            0      0.00%     91.11% # Class of committed instruction
system.cpu01.commit.op_class_0::SimdFloatReduceCmp            0      0.00%     91.11% # Class of committed instruction
system.cpu01.commit.op_class_0::SimdAes             0      0.00%     91.11% # Class of committed instruction
system.cpu01.commit.op_class_0::SimdAesMix            0      0.00%     91.11% # Class of committed instruction
system.cpu01.commit.op_class_0::SimdSha1Hash            0      0.00%     91.11% # Class of committed instruction
system.cpu01.commit.op_class_0::SimdSha1Hash2            0      0.00%     91.11% # Class of committed instruction
system.cpu01.commit.op_class_0::SimdSha256Hash            0      0.00%     91.11% # Class of committed instruction
system.cpu01.commit.op_class_0::SimdSha256Hash2            0      0.00%     91.11% # Class of committed instruction
system.cpu01.commit.op_class_0::SimdShaSigma2            0      0.00%     91.11% # Class of committed instruction
system.cpu01.commit.op_class_0::SimdShaSigma3            0      0.00%     91.11% # Class of committed instruction
system.cpu01.commit.op_class_0::SimdPredAlu            0      0.00%     91.11% # Class of committed instruction
system.cpu01.commit.op_class_0::MemRead        951799      5.73%     96.83% # Class of committed instruction
system.cpu01.commit.op_class_0::MemWrite         2364      0.01%     96.85% # Class of committed instruction
system.cpu01.commit.op_class_0::FloatMemRead       524297      3.15%    100.00% # Class of committed instruction
system.cpu01.commit.op_class_0::FloatMemWrite            8      0.00%    100.00% # Class of committed instruction
system.cpu01.commit.op_class_0::IprAccess            0      0.00%    100.00% # Class of committed instruction
system.cpu01.commit.op_class_0::InstPrefetch            0      0.00%    100.00% # Class of committed instruction
system.cpu01.commit.op_class_0::total        16622096                       # Class of committed instruction
system.cpu01.commit.refs                      1478468                       # Number of memory references committed
system.cpu01.commit.swp_count                       0                       # Number of s/w prefetches committed
system.cpu01.commit.vec_insts                       0                       # Number of committed Vector instructions.
system.cpu01.committedInsts                   9257897                       # Number of Instructions Simulated
system.cpu01.committedOps                    16622096                       # Number of Ops (including micro ops) Simulated
system.cpu01.cpi                             2.737416                       # CPI: Cycles Per Instruction
system.cpu01.cpi_total                       2.737416                       # CPI: Total CPI of All Threads
system.cpu01.decode.BlockedCycles            20827935                       # Number of cycles decode is blocked
system.cpu01.decode.DecodedInsts             16638905                       # Number of instructions handled by decode
system.cpu01.decode.IdleCycles                1343985                       # Number of cycles decode is idle
system.cpu01.decode.RunCycles                 2757190                       # Number of cycles decode is running
system.cpu01.decode.SquashCycles                  808                       # Number of cycles decode is squashing
system.cpu01.decode.UnblockCycles              396905                       # Number of cycles decode is unblocking
system.cpu01.dtb.rdAccesses                   1476858                       # TLB accesses on read requests
system.cpu01.dtb.rdMisses                        1620                       # TLB misses on read requests
system.cpu01.dtb.walker.pwrStateResidencyTicks::UNDEFINED 2842138133883                       # Cumulative time (in ticks) in various power states
system.cpu01.dtb.wrAccesses                      2597                       # TLB accesses on write requests
system.cpu01.dtb.wrMisses                           6                       # TLB misses on write requests
system.cpu01.fetch.Branches                   2159702                       # Number of branches that fetch encountered
system.cpu01.fetch.CacheLines                 1731123                       # Number of cache lines fetched
system.cpu01.fetch.Cycles                    23585125                       # Number of cycles fetch has run and was not squashing or blocked
system.cpu01.fetch.IcacheSquashes                  66                       # Number of outstanding Icache misses that were squashed
system.cpu01.fetch.IcacheWaitRetryStallCycles          395                       # Number of stall cycles due to full MSHR
system.cpu01.fetch.Insts                      9269182                       # Number of instructions fetch has processed
system.cpu01.fetch.MiscStallCycles               2846                       # Number of cycles fetch has spent waiting on interrupts, or bad addresses, or out of MSHRs
system.cpu01.fetch.PendingTrapStallCycles         3378                       # Number of stall cycles due to pending traps
system.cpu01.fetch.SquashCycles                  1616                       # Number of cycles fetch has spent squashing
system.cpu01.fetch.branchRate                0.085220                       # Number of branch fetches per cycle
system.cpu01.fetch.icacheStallCycles          1734271                       # Number of cycles fetch is stalled on an Icache miss
system.cpu01.fetch.predictedBranches          1210613                       # Number of branches that fetch has predicted taken
system.cpu01.fetch.rate                      0.365753                       # Number of inst fetches per cycle
system.cpu01.fetch.rateDist::samples         25326823                       # Number of instructions fetched each cycle (Total)
system.cpu01.fetch.rateDist::mean            0.657103                       # Number of instructions fetched each cycle (Total)
system.cpu01.fetch.rateDist::stdev           1.947495                       # Number of instructions fetched each cycle (Total)
system.cpu01.fetch.rateDist::underflows             0      0.00%      0.00% # Number of instructions fetched each cycle (Total)
system.cpu01.fetch.rateDist::0               21972801     86.76%     86.76% # Number of instructions fetched each cycle (Total)
system.cpu01.fetch.rateDist::1                 602415      2.38%     89.14% # Number of instructions fetched each cycle (Total)
system.cpu01.fetch.rateDist::2                    919      0.00%     89.14% # Number of instructions fetched each cycle (Total)
system.cpu01.fetch.rateDist::3                 668265      2.64%     91.78% # Number of instructions fetched each cycle (Total)
system.cpu01.fetch.rateDist::4                 408198      1.61%     93.39% # Number of instructions fetched each cycle (Total)
system.cpu01.fetch.rateDist::5                 265042      1.05%     94.44% # Number of instructions fetched each cycle (Total)
system.cpu01.fetch.rateDist::6                    530      0.00%     94.44% # Number of instructions fetched each cycle (Total)
system.cpu01.fetch.rateDist::7                 197123      0.78%     95.22% # Number of instructions fetched each cycle (Total)
system.cpu01.fetch.rateDist::8                1211530      4.78%    100.00% # Number of instructions fetched each cycle (Total)
system.cpu01.fetch.rateDist::overflows              0      0.00%    100.00% # Number of instructions fetched each cycle (Total)
system.cpu01.fetch.rateDist::min_value              0                       # Number of instructions fetched each cycle (Total)
system.cpu01.fetch.rateDist::max_value              8                       # Number of instructions fetched each cycle (Total)
system.cpu01.fetch.rateDist::total           25326823                       # Number of instructions fetched each cycle (Total)
system.cpu01.fp_regfile_reads                 5767269                       # number of floating regfile reads
system.cpu01.fp_regfile_writes                3145857                       # number of floating regfile writes
system.cpu01.idleCycles                         15888                       # Total number of cycles that the CPU has spent unscheduled due to idling
system.cpu01.iew.branchMispredicts                913                       # Number of branch mispredicts detected at execute
system.cpu01.iew.exec_branches                2157879                       # Number of branches executed
system.cpu01.iew.exec_nop                           0                       # number of nop insts executed
system.cpu01.iew.exec_rate                   0.852947                       # Inst execution rate
system.cpu01.iew.exec_refs                    6465127                       # number of memory reference insts executed
system.cpu01.iew.exec_stores                     2597                       # Number of stores executed
system.cpu01.iew.exec_swp                           0                       # number of swp insts executed
system.cpu01.iew.iewBlockCycles              19625626                       # Number of cycles IEW is blocking
system.cpu01.iew.iewDispLoadInsts             1477635                       # Number of dispatched load instructions
system.cpu01.iew.iewDispNonSpecInsts              654                       # Number of dispatched non-speculative instructions
system.cpu01.iew.iewDispSquashedInsts              17                       # Number of squashed instructions skipped by dispatch
system.cpu01.iew.iewDispStoreInsts               3058                       # Number of dispatched store instructions
system.cpu01.iew.iewDispatchedInsts          16635347                       # Number of instructions dispatched to IQ
system.cpu01.iew.iewExecLoadInsts             6462530                       # Number of load instructions executed
system.cpu01.iew.iewExecSquashedInsts             684                       # Number of squashed instructions skipped in execute
system.cpu01.iew.iewExecutedInsts            21616001                       # Number of executed instructions
system.cpu01.iew.iewIQFullEvents                  622                       # Number of times the IQ has become full, causing a stall
system.cpu01.iew.iewIdleCycles                      0                       # Number of cycles IEW is idle
system.cpu01.iew.iewLSQFullEvents                   0                       # Number of times the LSQ has become full, causing a stall
system.cpu01.iew.iewSquashCycles                  808                       # Number of cycles IEW is squashing
system.cpu01.iew.iewUnblockCycles               67093                       # Number of cycles IEW is unblocking
system.cpu01.iew.lsq.thread0.blockedLoads            0                       # Number of blocked loads due to partial load-store forwarding
system.cpu01.iew.lsq.thread0.cacheBlocked      1050760                       # Number of times an access to memory failed due to the cache being blocked
system.cpu01.iew.lsq.thread0.forwLoads           1104                       # Number of loads that had data forwarded from stores
system.cpu01.iew.lsq.thread0.ignoredResponses            1                       # Number of memory responses ignored because the instruction is squashed
system.cpu01.iew.lsq.thread0.invAddrLoads            0                       # Number of loads ignored due to an invalid address
system.cpu01.iew.lsq.thread0.invAddrSwpfs            0                       # Number of software prefetches ignored due to an invalid address
system.cpu01.iew.lsq.thread0.memOrderViolation            2                       # Number of memory ordering violations
system.cpu01.iew.lsq.thread0.rescheduledLoads            0                       # Number of loads that were rescheduled
system.cpu01.iew.lsq.thread0.squashedLoads         1539                       # Number of loads squashed
system.cpu01.iew.lsq.thread0.squashedStores          686                       # Number of stores squashed
system.cpu01.iew.memOrderViolationEvents            2                       # Number of memory order violations
system.cpu01.iew.predictedNotTakenIncorrect          808                       # Number of branches that were predicted not taken incorrectly
system.cpu01.iew.predictedTakenIncorrect          105                       # Number of branches that were predicted taken incorrectly
system.cpu01.iew.wb_consumers                18067802                       # num instructions consuming a value
system.cpu01.iew.wb_count                    16629393                       # cumulative count of insts written-back
system.cpu01.iew.wb_fanout                   0.722709                       # average fanout of values written-back
system.cpu01.iew.wb_producers                13057757                       # num instructions producing a value
system.cpu01.iew.wb_rate                     0.656181                       # insts written-back per cycle
system.cpu01.iew.wb_sent                     16629984                       # cumulative count of insts sent to commit
system.cpu01.int_regfile_reads               24518600                       # number of integer regfile reads
system.cpu01.int_regfile_writes              10376062                       # number of integer regfile writes
system.cpu01.interrupts.pwrStateResidencyTicks::UNDEFINED 2842138133883                       # Cumulative time (in ticks) in various power states
system.cpu01.ipc                             0.365308                       # IPC: Instructions Per Cycle
system.cpu01.ipc_total                       0.365308                       # IPC: Total IPC of All Threads
system.cpu01.iq.FU_type_0::No_OpClass            1305      0.01%      0.01% # Type of FU issued
system.cpu01.iq.FU_type_0::IntAlu            13052859     60.38%     60.39% # Type of FU issued
system.cpu01.iq.FU_type_0::IntMult                  5      0.00%     60.39% # Type of FU issued
system.cpu01.iq.FU_type_0::IntDiv                   7      0.00%     60.39% # Type of FU issued
system.cpu01.iq.FU_type_0::FloatAdd                23      0.00%     60.39% # Type of FU issued
system.cpu01.iq.FU_type_0::FloatCmp                 0      0.00%     60.39% # Type of FU issued
system.cpu01.iq.FU_type_0::FloatCvt                 0      0.00%     60.39% # Type of FU issued
system.cpu01.iq.FU_type_0::FloatMult                0      0.00%     60.39% # Type of FU issued
system.cpu01.iq.FU_type_0::FloatMultAcc             0      0.00%     60.39% # Type of FU issued
system.cpu01.iq.FU_type_0::FloatDiv                 0      0.00%     60.39% # Type of FU issued
system.cpu01.iq.FU_type_0::FloatMisc                0      0.00%     60.39% # Type of FU issued
system.cpu01.iq.FU_type_0::FloatSqrt                0      0.00%     60.39% # Type of FU issued
system.cpu01.iq.FU_type_0::SimdAdd                  0      0.00%     60.39% # Type of FU issued
system.cpu01.iq.FU_type_0::SimdAddAcc               0      0.00%     60.39% # Type of FU issued
system.cpu01.iq.FU_type_0::SimdAlu            1572878      7.28%     67.67% # Type of FU issued
system.cpu01.iq.FU_type_0::SimdCmp                  0      0.00%     67.67% # Type of FU issued
system.cpu01.iq.FU_type_0::SimdCvt             524292      2.43%     70.09% # Type of FU issued
system.cpu01.iq.FU_type_0::SimdMisc                 4      0.00%     70.09% # Type of FU issued
system.cpu01.iq.FU_type_0::SimdMult                 0      0.00%     70.09% # Type of FU issued
system.cpu01.iq.FU_type_0::SimdMultAcc              0      0.00%     70.09% # Type of FU issued
system.cpu01.iq.FU_type_0::SimdShift                8      0.00%     70.09% # Type of FU issued
system.cpu01.iq.FU_type_0::SimdShiftAcc             0      0.00%     70.09% # Type of FU issued
system.cpu01.iq.FU_type_0::SimdDiv                  0      0.00%     70.09% # Type of FU issued
system.cpu01.iq.FU_type_0::SimdSqrt                 0      0.00%     70.09% # Type of FU issued
system.cpu01.iq.FU_type_0::SimdFloatAdd             0      0.00%     70.09% # Type of FU issued
system.cpu01.iq.FU_type_0::SimdFloatAlu             0      0.00%     70.09% # Type of FU issued
system.cpu01.iq.FU_type_0::SimdFloatCmp             0      0.00%     70.09% # Type of FU issued
system.cpu01.iq.FU_type_0::SimdFloatCvt             0      0.00%     70.09% # Type of FU issued
system.cpu01.iq.FU_type_0::SimdFloatDiv             0      0.00%     70.09% # Type of FU issued
system.cpu01.iq.FU_type_0::SimdFloatMisc            0      0.00%     70.09% # Type of FU issued
system.cpu01.iq.FU_type_0::SimdFloatMult            0      0.00%     70.09% # Type of FU issued
system.cpu01.iq.FU_type_0::SimdFloatMultAcc            0      0.00%     70.09% # Type of FU issued
system.cpu01.iq.FU_type_0::SimdFloatSqrt            0      0.00%     70.09% # Type of FU issued
system.cpu01.iq.FU_type_0::SimdReduceAdd            0      0.00%     70.09% # Type of FU issued
system.cpu01.iq.FU_type_0::SimdReduceAlu            0      0.00%     70.09% # Type of FU issued
system.cpu01.iq.FU_type_0::SimdReduceCmp            0      0.00%     70.09% # Type of FU issued
system.cpu01.iq.FU_type_0::SimdFloatReduceAdd            0      0.00%     70.09% # Type of FU issued
system.cpu01.iq.FU_type_0::SimdFloatReduceCmp            0      0.00%     70.09% # Type of FU issued
system.cpu01.iq.FU_type_0::SimdAes                  0      0.00%     70.09% # Type of FU issued
system.cpu01.iq.FU_type_0::SimdAesMix               0      0.00%     70.09% # Type of FU issued
system.cpu01.iq.FU_type_0::SimdSha1Hash             0      0.00%     70.09% # Type of FU issued
system.cpu01.iq.FU_type_0::SimdSha1Hash2            0      0.00%     70.09% # Type of FU issued
system.cpu01.iq.FU_type_0::SimdSha256Hash            0      0.00%     70.09% # Type of FU issued
system.cpu01.iq.FU_type_0::SimdSha256Hash2            0      0.00%     70.09% # Type of FU issued
system.cpu01.iq.FU_type_0::SimdShaSigma2            0      0.00%     70.09% # Type of FU issued
system.cpu01.iq.FU_type_0::SimdShaSigma3            0      0.00%     70.09% # Type of FU issued
system.cpu01.iq.FU_type_0::SimdPredAlu              0      0.00%     70.09% # Type of FU issued
system.cpu01.iq.FU_type_0::MemRead             957662      4.43%     74.52% # Type of FU issued
system.cpu01.iq.FU_type_0::MemWrite              2641      0.01%     74.53% # Type of FU issued
system.cpu01.iq.FU_type_0::FloatMemRead       5504992     25.47%    100.00% # Type of FU issued
system.cpu01.iq.FU_type_0::FloatMemWrite            9      0.00%    100.00% # Type of FU issued
system.cpu01.iq.FU_type_0::IprAccess                0      0.00%    100.00% # Type of FU issued
system.cpu01.iq.FU_type_0::InstPrefetch             0      0.00%    100.00% # Type of FU issued
system.cpu01.iq.FU_type_0::total             21616685                       # Type of FU issued
system.cpu01.iq.fp_alu_accesses               8912934                       # Number of floating point alu accesses
system.cpu01.iq.fp_inst_queue_reads          17039447                       # Number of floating instruction queue reads
system.cpu01.iq.fp_inst_queue_wakeup_accesses      3145812                       # Number of floating instruction queue wakeup accesses
system.cpu01.iq.fp_inst_queue_writes          3145979                       # Number of floating instruction queue writes
system.cpu01.iq.fu_busy_cnt                    791380                       # FU busy when requested
system.cpu01.iq.fu_busy_rate                 0.036610                       # FU busy rate (busy events/executed inst)
system.cpu01.iq.fu_full::No_OpClass                 0      0.00%      0.00% # attempts to use FU when none available
system.cpu01.iq.fu_full::IntAlu                  3567      0.45%      0.45% # attempts to use FU when none available
system.cpu01.iq.fu_full::IntMult                    0      0.00%      0.45% # attempts to use FU when none available
system.cpu01.iq.fu_full::IntDiv                     0      0.00%      0.45% # attempts to use FU when none available
system.cpu01.iq.fu_full::FloatAdd                   0      0.00%      0.45% # attempts to use FU when none available
system.cpu01.iq.fu_full::FloatCmp                   0      0.00%      0.45% # attempts to use FU when none available
system.cpu01.iq.fu_full::FloatCvt                   0      0.00%      0.45% # attempts to use FU when none available
system.cpu01.iq.fu_full::FloatMult                  0      0.00%      0.45% # attempts to use FU when none available
system.cpu01.iq.fu_full::FloatMultAcc               0      0.00%      0.45% # attempts to use FU when none available
system.cpu01.iq.fu_full::FloatDiv                   0      0.00%      0.45% # attempts to use FU when none available
system.cpu01.iq.fu_full::FloatMisc                  0      0.00%      0.45% # attempts to use FU when none available
system.cpu01.iq.fu_full::FloatSqrt                  0      0.00%      0.45% # attempts to use FU when none available
system.cpu01.iq.fu_full::SimdAdd                    0      0.00%      0.45% # attempts to use FU when none available
system.cpu01.iq.fu_full::SimdAddAcc                 0      0.00%      0.45% # attempts to use FU when none available
system.cpu01.iq.fu_full::SimdAlu                    0      0.00%      0.45% # attempts to use FU when none available
system.cpu01.iq.fu_full::SimdCmp                    0      0.00%      0.45% # attempts to use FU when none available
system.cpu01.iq.fu_full::SimdCvt                    0      0.00%      0.45% # attempts to use FU when none available
system.cpu01.iq.fu_full::SimdMisc                   0      0.00%      0.45% # attempts to use FU when none available
system.cpu01.iq.fu_full::SimdMult                   0      0.00%      0.45% # attempts to use FU when none available
system.cpu01.iq.fu_full::SimdMultAcc                0      0.00%      0.45% # attempts to use FU when none available
system.cpu01.iq.fu_full::SimdShift                  0      0.00%      0.45% # attempts to use FU when none available
system.cpu01.iq.fu_full::SimdShiftAcc               0      0.00%      0.45% # attempts to use FU when none available
system.cpu01.iq.fu_full::SimdDiv                    0      0.00%      0.45% # attempts to use FU when none available
system.cpu01.iq.fu_full::SimdSqrt                   0      0.00%      0.45% # attempts to use FU when none available
system.cpu01.iq.fu_full::SimdFloatAdd               0      0.00%      0.45% # attempts to use FU when none available
system.cpu01.iq.fu_full::SimdFloatAlu               0      0.00%      0.45% # attempts to use FU when none available
system.cpu01.iq.fu_full::SimdFloatCmp               0      0.00%      0.45% # attempts to use FU when none available
system.cpu01.iq.fu_full::SimdFloatCvt               0      0.00%      0.45% # attempts to use FU when none available
system.cpu01.iq.fu_full::SimdFloatDiv               0      0.00%      0.45% # attempts to use FU when none available
system.cpu01.iq.fu_full::SimdFloatMisc              0      0.00%      0.45% # attempts to use FU when none available
system.cpu01.iq.fu_full::SimdFloatMult              0      0.00%      0.45% # attempts to use FU when none available
system.cpu01.iq.fu_full::SimdFloatMultAcc            0      0.00%      0.45% # attempts to use FU when none available
system.cpu01.iq.fu_full::SimdFloatSqrt              0      0.00%      0.45% # attempts to use FU when none available
system.cpu01.iq.fu_full::SimdReduceAdd              0      0.00%      0.45% # attempts to use FU when none available
system.cpu01.iq.fu_full::SimdReduceAlu              0      0.00%      0.45% # attempts to use FU when none available
system.cpu01.iq.fu_full::SimdReduceCmp              0      0.00%      0.45% # attempts to use FU when none available
system.cpu01.iq.fu_full::SimdFloatReduceAdd            0      0.00%      0.45% # attempts to use FU when none available
system.cpu01.iq.fu_full::SimdFloatReduceCmp            0      0.00%      0.45% # attempts to use FU when none available
system.cpu01.iq.fu_full::SimdAes                    0      0.00%      0.45% # attempts to use FU when none available
system.cpu01.iq.fu_full::SimdAesMix                 0      0.00%      0.45% # attempts to use FU when none available
system.cpu01.iq.fu_full::SimdSha1Hash               0      0.00%      0.45% # attempts to use FU when none available
system.cpu01.iq.fu_full::SimdSha1Hash2              0      0.00%      0.45% # attempts to use FU when none available
system.cpu01.iq.fu_full::SimdSha256Hash             0      0.00%      0.45% # attempts to use FU when none available
system.cpu01.iq.fu_full::SimdSha256Hash2            0      0.00%      0.45% # attempts to use FU when none available
system.cpu01.iq.fu_full::SimdShaSigma2              0      0.00%      0.45% # attempts to use FU when none available
system.cpu01.iq.fu_full::SimdShaSigma3              0      0.00%      0.45% # attempts to use FU when none available
system.cpu01.iq.fu_full::SimdPredAlu                0      0.00%      0.45% # attempts to use FU when none available
[...]
system.ruby.network.int_links44.network_link.pwrStateResidencyTicks::UNDEFINED 2842160590737                       # Cumulative time (in ticks) in various power states
system.ruby.network.int_links45.credit_link.pwrStateResidencyTicks::UNDEFINED 2842160590737                       # Cumulative time (in ticks) in various power states
system.ruby.network.int_links45.network_link.pwrStateResidencyTicks::UNDEFINED 2842160590737                       # Cumulative time (in ticks) in various power states
system.ruby.network.int_links46.credit_link.pwrStateResidencyTicks::UNDEFINED 2842160590737                       # Cumulative time (in ticks) in various power states
system.ruby.network.int_links46.network_link.pwrStateResidencyTicks::UNDEFINED 2842160590737                       # Cumulative time (in ticks) in various power states
system.ruby.network.int_links47.credit_link.pwrStateResidencyTicks::UNDEFINED 2842160590737                       # Cumulative time (in ticks) in various power states
system.ruby.network.int_links47.network_link.pwrStateResidencyTicks::UNDEFINED 2842160590737                       # Cumulative time (in ticks) in various power states
system.ruby.network.netifs00.pwrStateResidencyTicks::UNDEFINED 2842160590737                       # Cumulative time (in ticks) in various power states
system.ruby.network.netifs01.pwrStateResidencyTicks::UNDEFINED 2842160590737                       # Cumulative time (in ticks) in various power states
system.ruby.network.netifs02.pwrStateResidencyTicks::UNDEFINED 2842160590737                       # Cumulative time (in ticks) in various power states
system.ruby.network.netifs03.pwrStateResidencyTicks::UNDEFINED 2842160590737                       # Cumulative time (in ticks) in various power states
system.ruby.network.netifs04.pwrStateResidencyTicks::UNDEFINED 2842160590737                       # Cumulative time (in ticks) in various power states
system.ruby.network.netifs05.pwrStateResidencyTicks::UNDEFINED 2842160590737                       # Cumulative time (in ticks) in various power states
system.ruby.network.netifs06.pwrStateResidencyTicks::UNDEFINED 2842160590737                       # Cumulative time (in ticks) in various power states
system.ruby.network.netifs07.pwrStateResidencyTicks::UNDEFINED 2842160590737                       # Cumulative time (in ticks) in various power states
system.ruby.network.netifs08.pwrStateResidencyTicks::UNDEFINED 2842160590737                       # Cumulative time (in ticks) in various power states
system.ruby.network.netifs09.pwrStateResidencyTicks::UNDEFINED 2842160590737                       # Cumulative time (in ticks) in various power states
system.ruby.network.netifs10.pwrStateResidencyTicks::UNDEFINED 2842160590737                       # Cumulative time (in ticks) in various power states
system.ruby.network.netifs11.pwrStateResidencyTicks::UNDEFINED 2842160590737                       # Cumulative time (in ticks) in various power states
system.ruby.network.netifs12.pwrStateResidencyTicks::UNDEFINED 2842160590737                       # Cumulative time (in ticks) in various power states
system.ruby.network.netifs13.pwrStateResidencyTicks::UNDEFINED 2842160590737                       # Cumulative time (in ticks) in various power states
system.ruby.network.netifs14.pwrStateResidencyTicks::UNDEFINED 2842160590737                       # Cumulative time (in ticks) in various power states
system.ruby.network.netifs15.pwrStateResidencyTicks::UNDEFINED 2842160590737                       # Cumulative time (in ticks) in various power states
system.ruby.network.netifs16.pwrStateResidencyTicks::UNDEFINED 2842160590737                       # Cumulative time (in ticks) in various power states
system.ruby.network.netifs17.pwrStateResidencyTicks::UNDEFINED 2842160590737                       # Cumulative time (in ticks) in various power states
system.ruby.network.netifs18.pwrStateResidencyTicks::UNDEFINED 2842160590737                       # Cumulative time (in ticks) in various power states
system.ruby.network.netifs19.pwrStateResidencyTicks::UNDEFINED 2842160590737                       # Cumulative time (in ticks) in various power states
system.ruby.network.netifs20.pwrStateResidencyTicks::UNDEFINED 2842160590737                       # Cumulative time (in ticks) in various power states
system.ruby.network.netifs21.pwrStateResidencyTicks::UNDEFINED 2842160590737                       # Cumulative time (in ticks) in various power states
system.ruby.network.netifs22.pwrStateResidencyTicks::UNDEFINED 2842160590737                       # Cumulative time (in ticks) in various power states
system.ruby.network.netifs23.pwrStateResidencyTicks::UNDEFINED 2842160590737                       # Cumulative time (in ticks) in various power states
system.ruby.network.netifs24.pwrStateResidencyTicks::UNDEFINED 2842160590737                       # Cumulative time (in ticks) in various power states
system.ruby.network.netifs25.pwrStateResidencyTicks::UNDEFINED 2842160590737                       # Cumulative time (in ticks) in various power states
system.ruby.network.netifs26.pwrStateResidencyTicks::UNDEFINED 2842160590737                       # Cumulative time (in ticks) in various power states
system.ruby.network.netifs27.pwrStateResidencyTicks::UNDEFINED 2842160590737                       # Cumulative time (in ticks) in various power states
system.ruby.network.netifs28.pwrStateResidencyTicks::UNDEFINED 2842160590737                       # Cumulative time (in ticks) in various power states
system.ruby.network.netifs29.pwrStateResidencyTicks::UNDEFINED 2842160590737                       # Cumulative time (in ticks) in various power states
system.ruby.network.netifs30.pwrStateResidencyTicks::UNDEFINED 2842160590737                       # Cumulative time (in ticks) in various power states
system.ruby.network.netifs31.pwrStateResidencyTicks::UNDEFINED 2842160590737                       # Cumulative time (in ticks) in various power states
system.ruby.network.netifs32.pwrStateResidencyTicks::UNDEFINED 2842160590737                       # Cumulative time (in ticks) in various power states
system.ruby.network.netifs33.pwrStateResidencyTicks::UNDEFINED 2842160590737                       # Cumulative time (in ticks) in various power states
system.ruby.network.netifs34.pwrStateResidencyTicks::UNDEFINED 2842160590737                       # Cumulative time (in ticks) in various power states
system.ruby.network.netifs35.pwrStateResidencyTicks::UNDEFINED 2842160590737                       # Cumulative time (in ticks) in various power states
system.ruby.network.netifs36.pwrStateResidencyTicks::UNDEFINED 2842160590737                       # Cumulative time (in ticks) in various power states
system.ruby.network.netifs37.pwrStateResidencyTicks::UNDEFINED 2842160590737                       # Cumulative time (in ticks) in various power states
system.ruby.network.netifs38.pwrStateResidencyTicks::UNDEFINED 2842160590737                       # Cumulative time (in ticks) in various power states
system.ruby.network.netifs39.pwrStateResidencyTicks::UNDEFINED 2842160590737                       # Cumulative time (in ticks) in various power states
system.ruby.network.netifs40.pwrStateResidencyTicks::UNDEFINED 2842160590737                       # Cumulative time (in ticks) in various power states
system.ruby.network.netifs41.pwrStateResidencyTicks::UNDEFINED 2842160590737                       # Cumulative time (in ticks) in various power states
system.ruby.network.netifs42.pwrStateResidencyTicks::UNDEFINED 2842160590737                       # Cumulative time (in ticks) in various power states
system.ruby.network.netifs43.pwrStateResidencyTicks::UNDEFINED 2842160590737                       # Cumulative time (in ticks) in various power states
system.ruby.network.netifs44.pwrStateResidencyTicks::UNDEFINED 2842160590737                       # Cumulative time (in ticks) in various power states
system.ruby.network.netifs45.pwrStateResidencyTicks::UNDEFINED 2842160590737                       # Cumulative time (in ticks) in various power states
system.ruby.network.netifs46.pwrStateResidencyTicks::UNDEFINED 2842160590737                       # Cumulative time (in ticks) in various power states
system.ruby.network.netifs47.pwrStateResidencyTicks::UNDEFINED 2842160590737                       # Cumulative time (in ticks) in various power states
system.ruby.network.packet_network_latency |  1962158875                       |   174854783                       |  1805930464                      
system.ruby.network.packet_queueing_latency |   184599682                       |    13728788                       |   960131611                      
system.ruby.network.packets_injected     |   133662849     41.91%     41.91% |    13728788      4.30%     46.21% |   171536643     53.79%    100.00%
system.ruby.network.packets_injected::total    318928280                      
system.ruby.network.packets_received     |   133662849     41.91%     41.91% |    13728788      4.30%     46.21% |   171536643     53.79%    100.00%
system.ruby.network.packets_received::total    318928280                      
system.ruby.network.pwrStateResidencyTicks::UNDEFINED 2842160590737                       # Cumulative time (in ticks) in various power states
system.ruby.network.routers00.buffer_reads   1258679147                      
system.ruby.network.routers00.buffer_writes   1258679147                      
system.ruby.network.routers00.crossbar_activity    629342180                      
system.ruby.network.routers00.pwrStateResidencyTicks::UNDEFINED 2842160590737                       # Cumulative time (in ticks) in various power states
system.ruby.network.routers00.sw_input_arbiter_activity    634448765                      
system.ruby.network.routers00.sw_output_arbiter_activity    629342180                      
system.ruby.network.routers01.buffer_reads    646375076                      
system.ruby.network.routers01.buffer_writes    646375076                      
system.ruby.network.routers01.crossbar_activity    323188981                      
system.ruby.network.routers01.pwrStateResidencyTicks::UNDEFINED 2842160590737                       # Cumulative time (in ticks) in various power states
system.ruby.network.routers01.sw_input_arbiter_activity    323618183                      
system.ruby.network.routers01.sw_output_arbiter_activity    323188981                      
system.ruby.network.routers02.buffer_reads    443958314                      
system.ruby.network.routers02.buffer_writes    443958314                      
system.ruby.network.routers02.crossbar_activity    221980229                      
system.ruby.network.routers02.pwrStateResidencyTicks::UNDEFINED 2842160590737                       # Cumulative time (in ticks) in various power states
system.ruby.network.routers02.sw_input_arbiter_activity    222294655                      
system.ruby.network.routers02.sw_output_arbiter_activity    221980229                      
system.ruby.network.routers03.buffer_reads    229887362                      
system.ruby.network.routers03.buffer_writes    229887362                      
system.ruby.network.routers03.crossbar_activity    114944265                      
system.ruby.network.routers03.pwrStateResidencyTicks::UNDEFINED 2842160590737                       # Cumulative time (in ticks) in various power states
system.ruby.network.routers03.sw_input_arbiter_activity    115000880                      
system.ruby.network.routers03.sw_output_arbiter_activity    114944265                      
system.ruby.network.routers04.buffer_reads    584512946                      
system.ruby.network.routers04.buffer_writes    584512946                      
system.ruby.network.routers04.crossbar_activity    292257663                      
system.ruby.network.routers04.pwrStateResidencyTicks::UNDEFINED 2842160590737                       # Cumulative time (in ticks) in various power states
system.ruby.network.routers04.sw_input_arbiter_activity    295291996                      
system.ruby.network.routers04.sw_output_arbiter_activity    292257663                      
system.ruby.network.routers05.buffer_reads    280260621                      
system.ruby.network.routers05.buffer_writes    280260621                      
system.ruby.network.routers05.crossbar_activity    140130992                      
system.ruby.network.routers05.pwrStateResidencyTicks::UNDEFINED 2842160590737                       # Cumulative time (in ticks) in various power states
system.ruby.network.routers05.sw_input_arbiter_activity    140546099                      
system.ruby.network.routers05.sw_output_arbiter_activity    140130992                      
system.ruby.network.routers06.buffer_reads    245199234                      
system.ruby.network.routers06.buffer_writes    245199234                      
system.ruby.network.routers06.crossbar_activity    122600256                      
system.ruby.network.routers06.pwrStateResidencyTicks::UNDEFINED 2842160590737                       # Cumulative time (in ticks) in various power states
system.ruby.network.routers06.sw_input_arbiter_activity    122944401                      
system.ruby.network.routers06.sw_output_arbiter_activity    122600256                      
system.ruby.network.routers07.buffer_reads    199015814                      
system.ruby.network.routers07.buffer_writes    199015814                      
system.ruby.network.routers07.crossbar_activity     99508411                      
system.ruby.network.routers07.pwrStateResidencyTicks::UNDEFINED 2842160590737                       # Cumulative time (in ticks) in various power states
system.ruby.network.routers07.sw_input_arbiter_activity     99618654                      
system.ruby.network.routers07.sw_output_arbiter_activity     99508411                      
system.ruby.network.routers08.buffer_reads    402259926                      
system.ruby.network.routers08.buffer_writes    402259926                      
system.ruby.network.routers08.crossbar_activity    201130870                      
system.ruby.network.routers08.pwrStateResidencyTicks::UNDEFINED 2842160590737                       # Cumulative time (in ticks) in various power states
system.ruby.network.routers08.sw_input_arbiter_activity    202799810                      
system.ruby.network.routers08.sw_output_arbiter_activity    201130870                      
system.ruby.network.routers09.buffer_reads    238446324                      
system.ruby.network.routers09.buffer_writes    238446324                      
system.ruby.network.routers09.crossbar_activity    119223776                      
system.ruby.network.routers09.pwrStateResidencyTicks::UNDEFINED 2842160590737                       # Cumulative time (in ticks) in various power states
system.ruby.network.routers09.sw_input_arbiter_activity    119639054                      
system.ruby.network.routers09.sw_output_arbiter_activity    119223776                      
system.ruby.network.routers10.buffer_reads    203644662                      
system.ruby.network.routers10.buffer_writes    203644662                      
system.ruby.network.routers10.crossbar_activity    101822920                      
system.ruby.network.routers10.pwrStateResidencyTicks::UNDEFINED 2842160590737                       # Cumulative time (in ticks) in various power states
system.ruby.network.routers10.sw_input_arbiter_activity    102159465                      
system.ruby.network.routers10.sw_output_arbiter_activity    101822920                      
system.ruby.network.routers11.buffer_reads    157495229                      
system.ruby.network.routers11.buffer_writes    157495229                      
system.ruby.network.routers11.crossbar_activity     78748106                      
system.ruby.network.routers11.pwrStateResidencyTicks::UNDEFINED 2842160590737                       # Cumulative time (in ticks) in various power states
system.ruby.network.routers11.sw_input_arbiter_activity     78850172                      
system.ruby.network.routers11.sw_output_arbiter_activity     78748106                      
system.ruby.network.routers12.buffer_reads    209247593                      
system.ruby.network.routers12.buffer_writes    209247593                      
system.ruby.network.routers12.crossbar_activity    104624247                      
system.ruby.network.routers12.pwrStateResidencyTicks::UNDEFINED 2842160590737                       # Cumulative time (in ticks) in various power states
system.ruby.network.routers12.sw_input_arbiter_activity    105039974                      
system.ruby.network.routers12.sw_output_arbiter_activity    104624247                      
system.ruby.network.routers13.buffer_reads    185578482                      
system.ruby.network.routers13.buffer_writes    185578482                      
system.ruby.network.routers13.crossbar_activity     92789679                      
system.ruby.network.routers13.pwrStateResidencyTicks::UNDEFINED 2842160590737                       # Cumulative time (in ticks) in various power states
system.ruby.network.routers13.sw_input_arbiter_activity     93162487                      
system.ruby.network.routers13.sw_output_arbiter_activity     92789679                      
system.ruby.network.routers14.buffer_reads    150689012                      
system.ruby.network.routers14.buffer_writes    150689012                      
system.ruby.network.routers14.crossbar_activity     75344869                      
system.ruby.network.routers14.pwrStateResidencyTicks::UNDEFINED 2842160590737                       # Cumulative time (in ticks) in various power states
system.ruby.network.routers14.sw_input_arbiter_activity     75642140                      
system.ruby.network.routers14.sw_output_arbiter_activity     75344869                      
system.ruby.network.routers15.buffer_reads    104267672                      
system.ruby.network.routers15.buffer_writes    104267672                      
system.ruby.network.routers15.crossbar_activity     52134136                      
system.ruby.network.routers15.pwrStateResidencyTicks::UNDEFINED 2842160590737                       # Cumulative time (in ticks) in various power states
system.ruby.network.routers15.sw_input_arbiter_activity     52187200                      
system.ruby.network.routers15.sw_output_arbiter_activity     52134136                      
system.ruby.outstanding_req_hist_seqr::bucket_size            2                      
system.ruby.outstanding_req_hist_seqr::max_bucket           19                      
system.ruby.outstanding_req_hist_seqr::samples   1103915282                      
system.ruby.outstanding_req_hist_seqr::mean     1.666994                      
system.ruby.outstanding_req_hist_seqr::gmean     1.520806                      
system.ruby.outstanding_req_hist_seqr::stdev     0.739058                      
system.ruby.outstanding_req_hist_seqr    |   524273091     47.49%     47.49% |   561343015     50.85%     98.34% |    18113729      1.64%     99.98% |      169425      0.02%    100.00% |       13746      0.00%    100.00% |        2070      0.00%    100.00% |         202      0.00%    100.00% |           4      0.00%    100.00% |           0      0.00%    100.00% |           0      0.00%    100.00%
system.ruby.outstanding_req_hist_seqr::total   1103915282                      
system.ruby.pwrStateResidencyTicks::UNDEFINED 2842160590737                       # Cumulative time (in ticks) in various power states
system.sys_port_proxy.pwrStateResidencyTicks::UNDEFINED 2842160590737                       # Cumulative time (in ticks) in various power states
system.voltage_domain.voltage                       1                       # Voltage in Volts

---------- End Simulation Statistics   ----------
