
---------- Begin Simulation Statistics ----------
final_tick                               196105391640                       # Number of ticks from beginning of simulation (restored from checkpoints and never reset)
host_inst_rate                                  83583                       # Simulator instruction rate (inst/s)
host_mem_usage                                1560036                       # Number of bytes of host memory used
host_op_rate                                   140203                       # Simulator op (including micro ops) rate (op/s)
host_seconds                                163761.49                       # Real time elapsed on the host
host_tick_rate                                1184622                       # Simulator tick rate (ticks/s)
sim_freq                                 1000000000000                       # Frequency of simulated ticks
sim_insts                                 13687720012                       # Number of instructions simulated
sim_ops                                   22959863484                       # Number of ops (including micro ops) simulated
sim_seconds                                  0.193996                       # Number of seconds simulated
sim_ticks                                193995505638                       # Number of ticks simulated
system.clk_domain.clock                          1000                       # Clock period in ticks
system.cpu00.apic_clk_domain.clock               5328                       # Clock period in ticks
system.cpu00.branchPred.BTBCorrect                  0                       # Number of correct BTB predictions (this stat may not work properly.
system.cpu00.branchPred.BTBHitPct            0.000000                       # BTB Hit Percentage
system.cpu00.branchPred.BTBHits                     0                       # Number of BTB hits
system.cpu00.branchPred.BTBLookups           87015350                       # Number of BTB lookups
system.cpu00.branchPred.RASInCorrect              439                       # Number of incorrect RAS predictions.
system.cpu00.branchPred.condIncorrect         3961622                       # Number of conditional branches incorrect
system.cpu00.branchPred.condPredicted       101038290                       # Number of conditional branches predicted
system.cpu00.branchPred.indirectHits         79038249                       # Number of indirect target hits.
system.cpu00.branchPred.indirectLookups      87015350                       # Number of indirect predictor lookups.
system.cpu00.branchPred.indirectMisses        7977101                       # Number of indirect misses.
system.cpu00.branchPred.lookups             101038290                       # Number of BP lookups
system.cpu00.branchPred.usedRAS               3965807                       # Number of times the RAS was used to get a target.
system.cpu00.branchPredindirectMispredicted         1621                       # Number of mispredicted indirect branches.
system.cpu00.cc_regfile_reads               459292077                       # number of cc regfile reads
system.cpu00.cc_regfile_writes              330433810                       # number of cc regfile writes
system.cpu00.commit.amos                            0                       # Number of atomic instructions committed
system.cpu00.commit.branchMispredicts         3961814                       # The number of times a branch was mispredicted
system.cpu00.commit.branches                 94959048                       # Number of branches committed
system.cpu00.commit.bw_lim_events            79053565                       # number cycles where commit BW limit reached
system.cpu00.commit.commitNonSpecStalls         24349                       # The number of times commit has been forced to stall to communicate backwards
system.cpu00.commit.commitSquashedInsts      58568714                       # The number of squashed insts skipped by commit
system.cpu00.commit.committedInsts          833007739                       # Number of instructions committed
system.cpu00.commit.committedOps           1396634861                       # Number of ops (including micro ops) committed
system.cpu00.commit.committed_per_cycle::samples    574440723                       # Number of insts commited each cycle
system.cpu00.commit.committed_per_cycle::mean     2.431295                       # Number of insts commited each cycle
system.cpu00.commit.committed_per_cycle::stdev     3.139534                       # Number of insts commited each cycle
system.cpu00.commit.committed_per_cycle::underflows            0      0.00%      0.00% # Number of insts commited each cycle
system.cpu00.commit.committed_per_cycle::0    312492868     54.40%     54.40% # Number of insts commited each cycle
system.cpu00.commit.committed_per_cycle::1     22489583      3.92%     58.31% # Number of insts commited each cycle
system.cpu00.commit.committed_per_cycle::2      9802689      1.71%     60.02% # Number of insts commited each cycle
system.cpu00.commit.committed_per_cycle::3     64676647     11.26%     71.28% # Number of insts commited each cycle
system.cpu00.commit.committed_per_cycle::4     13573841      2.36%     73.64% # Number of insts commited each cycle
system.cpu00.commit.committed_per_cycle::5      8426323      1.47%     75.11% # Number of insts commited each cycle
system.cpu00.commit.committed_per_cycle::6     15821989      2.75%     77.86% # Number of insts commited each cycle
system.cpu00.commit.committed_per_cycle::7     48103218      8.37%     86.24% # Number of insts commited each cycle
system.cpu00.commit.committed_per_cycle::8     79053565     13.76%    100.00% # Number of insts commited each cycle
system.cpu00.commit.committed_per_cycle::overflows            0      0.00%    100.00% # Number of insts commited each cycle
system.cpu00.commit.committed_per_cycle::min_value            0                       # Number of insts commited each cycle
system.cpu00.commit.committed_per_cycle::max_value            8                       # Number of insts commited each cycle
system.cpu00.commit.committed_per_cycle::total    574440723                       # Number of insts commited each cycle
system.cpu00.commit.fp_insts                802417547                       # Number of committed floating point instructions.
system.cpu00.commit.function_calls            3956125                       # Number of function calls committed.
system.cpu00.commit.int_insts               719124471                       # Number of committed integer instructions.
system.cpu00.commit.loads                   175475513                       # Number of loads committed
system.cpu00.commit.membars                     16180                       # Number of memory barriers committed
system.cpu00.commit.op_class_0::No_OpClass      3959455      0.28%      0.28% # Class of committed instruction
system.cpu00.commit.op_class_0::IntAlu      548264686     39.26%     39.54% # Class of committed instruction
system.cpu00.commit.op_class_0::IntMult         16977      0.00%     39.54% # Class of committed instruction
system.cpu00.commit.op_class_0::IntDiv         118269      0.01%     39.55% # Class of committed instruction
system.cpu00.commit.op_class_0::FloatAdd    133715009      9.57%     49.12% # Class of committed instruction
system.cpu00.commit.op_class_0::FloatCmp            0      0.00%     49.12% # Class of committed instruction
system.cpu00.commit.op_class_0::FloatCvt            0      0.00%     49.12% # Class of committed instruction
system.cpu00.commit.op_class_0::FloatMult            0      0.00%     49.12% # Class of committed instruction
system.cpu00.commit.op_class_0::FloatMultAcc            0      0.00%     49.12% # Class of committed instruction
system.cpu00.commit.op_class_0::FloatDiv            0      0.00%     49.12% # Class of committed instruction
system.cpu00.commit.op_class_0::FloatMisc            0      0.00%     49.12% # Class of committed instruction
system.cpu00.commit.op_class_0::FloatSqrt            0      0.00%     49.12% # Class of committed instruction
system.cpu00.commit.op_class_0::SimdAdd             0      0.00%     49.12% # Class of committed instruction
system.cpu00.commit.op_class_0::SimdAddAcc            0      0.00%     49.12% # Class of committed instruction
system.cpu00.commit.op_class_0::SimdAlu     141580924     10.14%     59.26% # Class of committed instruction
system.cpu00.commit.op_class_0::SimdCmp             0      0.00%     59.26% # Class of committed instruction
system.cpu00.commit.op_class_0::SimdCvt             0      0.00%     59.26% # Class of committed instruction
system.cpu00.commit.op_class_0::SimdMisc         1952      0.00%     59.26% # Class of committed instruction
system.cpu00.commit.op_class_0::SimdMult            0      0.00%     59.26% # Class of committed instruction
system.cpu00.commit.op_class_0::SimdMultAcc            0      0.00%     59.26% # Class of committed instruction
system.cpu00.commit.op_class_0::SimdShift            0      0.00%     59.26% # Class of committed instruction
system.cpu00.commit.op_class_0::SimdShiftAcc            0      0.00%     59.26% # Class of committed instruction
system.cpu00.commit.op_class_0::SimdDiv             0      0.00%     59.26% # Class of committed instruction
system.cpu00.commit.op_class_0::SimdSqrt            0      0.00%     59.26% # Class of committed instruction
system.cpu00.commit.op_class_0::SimdFloatAdd    125868432      9.01%     68.27% # Class of committed instruction
system.cpu00.commit.op_class_0::SimdFloatAlu            0      0.00%     68.27% # Class of committed instruction
system.cpu00.commit.op_class_0::SimdFloatCmp            0      0.00%     68.27% # Class of committed instruction
system.cpu00.commit.op_class_0::SimdFloatCvt    196639678     14.08%     82.35% # Class of committed instruction
system.cpu00.commit.op_class_0::SimdFloatDiv          139      0.00%     82.35% # Class of committed instruction
system.cpu00.commit.op_class_0::SimdFloatMisc            0      0.00%     82.35% # Class of committed instruction
system.cpu00.commit.op_class_0::SimdFloatMult     62925720      4.51%     86.86% # Class of committed instruction
system.cpu00.commit.op_class_0::SimdFloatMultAcc            0      0.00%     86.86% # Class of committed instruction
system.cpu00.commit.op_class_0::SimdFloatSqrt      3932788      0.28%     87.14% # Class of committed instruction
system.cpu00.commit.op_class_0::SimdReduceAdd            0      0.00%     87.14% # Class of committed instruction
system.cpu00.commit.op_class_0::SimdReduceAlu            0      0.00%     87.14% # Class of committed instruction
system.cpu00.commit.op_class_0::SimdReduceCmp            0      0.00%     87.14% # Class of committed instruction
system.cpu00.commit.op_class_0::SimdFloatReduceAdd            0      0.00%     87.14% # Class of committed instruction
system.cpu00.commit.op_class_0::SimdFloatReduceCmp            0      0.00%     87.14% # Class of committed instruction
system.cpu00.commit.op_class_0::SimdAes             0      0.00%     87.14% # Class of committed instruction
system.cpu00.commit.op_class_0::SimdAesMix            0      0.00%     87.14% # Class of committed instruction
system.cpu00.commit.op_class_0::SimdSha1Hash            0      0.00%     87.14% # Class of committed instruction
system.cpu00.commit.op_class_0::SimdSha1Hash2            0      0.00%     87.14% # Class of committed instruction
system.cpu00.commit.op_class_0::SimdSha256Hash            0      0.00%     87.14% # Class of committed instruction
system.cpu00.commit.op_class_0::SimdSha256Hash2            0      0.00%     87.14% # Class of committed instruction
system.cpu00.commit.op_class_0::SimdShaSigma2            0      0.00%     87.14% # Class of committed instruction
system.cpu00.commit.op_class_0::SimdShaSigma3            0      0.00%     87.14% # Class of committed instruction
system.cpu00.commit.op_class_0::SimdPredAlu            0      0.00%     87.14% # Class of committed instruction
system.cpu00.commit.op_class_0::MemRead      45638387      3.27%     90.41% # Class of committed instruction
system.cpu00.commit.op_class_0::MemWrite      4085748      0.29%     90.70% # Class of committed instruction
system.cpu00.commit.op_class_0::FloatMemRead    129837126      9.30%    100.00% # Class of committed instruction
system.cpu00.commit.op_class_0::FloatMemWrite        49571      0.00%    100.00% # Class of committed instruction
system.cpu00.commit.op_class_0::IprAccess            0      0.00%    100.00% # Class of committed instruction
system.cpu00.commit.op_class_0::InstPrefetch            0      0.00%    100.00% # Class of committed instruction
system.cpu00.commit.op_class_0::total      1396634861                       # Class of committed instruction
system.cpu00.commit.refs                    179610832                       # Number of memory references committed
system.cpu00.commit.swp_count                       0                       # Number of s/w prefetches committed
system.cpu00.commit.vec_insts                       0                       # Number of committed Vector instructions.
system.cpu00.committedInsts                 833007739                       # Number of Instructions Simulated
system.cpu00.committedOps                  1396634861                       # Number of Ops (including micro ops) Simulated
system.cpu00.cpi                             0.699356                       # CPI: Cycles Per Instruction
system.cpu00.cpi_total                       0.699356                       # CPI: Total CPI of All Threads
system.cpu00.decode.BlockedCycles           229389135                       # Number of cycles decode is blocked
system.cpu00.decode.DecodedInsts           1490958876                       # Number of instructions handled by decode
system.cpu00.decode.IdleCycles              120579214                       # Number of cycles decode is idle
system.cpu00.decode.RunCycles               198617293                       # Number of cycles decode is running
system.cpu00.decode.SquashCycles              3962245                       # Number of cycles decode is squashing
system.cpu00.decode.UnblockCycles            29975121                       # Number of cycles decode is unblocking
system.cpu00.dtb.rdAccesses                 185484225                       # TLB accesses on read requests
system.cpu00.dtb.rdMisses                        3801                       # TLB misses on read requests
system.cpu00.dtb.walker.pwrStateResidencyTicks::UNDEFINED 196105391640                       # Cumulative time (in ticks) in various power states
system.cpu00.dtb.wrAccesses                   4164399                       # TLB accesses on write requests
system.cpu00.dtb.wrMisses                         299                       # TLB misses on write requests
system.cpu00.fetch.Branches                 101038290                       # Number of branches that fetch encountered
system.cpu00.fetch.CacheLines               163910195                       # Number of cache lines fetched
system.cpu00.fetch.Cycles                   411655236                       # Number of cycles fetch has run and was not squashing or blocked
system.cpu00.fetch.IcacheSquashes              989123                       # Number of outstanding Icache misses that were squashed
system.cpu00.fetch.IcacheWaitRetryStallCycles         2144                       # Number of stall cycles due to full MSHR
system.cpu00.fetch.Insts                    910771371                       # Number of instructions fetch has processed
system.cpu00.fetch.MiscStallCycles               6456                       # Number of cycles fetch has spent waiting on interrupts, or bad addresses, or out of MSHRs
system.cpu00.fetch.PendingTrapStallCycles         3100                       # Number of stall cycles due to pending traps
system.cpu00.fetch.SquashCycles               7924490                       # Number of cycles fetch has spent squashing
system.cpu00.fetch.branchRate                0.173436                       # Number of branch fetches per cycle
system.cpu00.fetch.icacheStallCycles        166893827                       # Number of cycles fetch is stalled on an Icache miss
system.cpu00.fetch.predictedBranches         83004056                       # Number of branches that fetch has predicted taken
system.cpu00.fetch.rate                      1.563371                       # Number of inst fetches per cycle
system.cpu00.fetch.rateDist::samples        582523008                       # Number of instructions fetched each cycle (Total)
system.cpu00.fetch.rateDist::mean            2.623927                       # Number of instructions fetched each cycle (Total)
system.cpu00.fetch.rateDist::stdev           3.209469                       # Number of instructions fetched each cycle (Total)
system.cpu00.fetch.rateDist::underflows             0      0.00%      0.00% # Number of instructions fetched each cycle (Total)
system.cpu00.fetch.rateDist::0              326177306     55.99%     55.99% # Number of instructions fetched each cycle (Total)
system.cpu00.fetch.rateDist::1                  50025      0.01%     56.00% # Number of instructions fetched each cycle (Total)
system.cpu00.fetch.rateDist::2               10989256      1.89%     57.89% # Number of instructions fetched each cycle (Total)
system.cpu00.fetch.rateDist::3                3978237      0.68%     58.57% # Number of instructions fetched each cycle (Total)
system.cpu00.fetch.rateDist::4               75394730     12.94%     71.51% # Number of instructions fetched each cycle (Total)
system.cpu00.fetch.rateDist::5                  67992      0.01%     71.53% # Number of instructions fetched each cycle (Total)
system.cpu00.fetch.rateDist::6               61229296     10.51%     82.04% # Number of instructions fetched each cycle (Total)
system.cpu00.fetch.rateDist::7               11849293      2.03%     84.07% # Number of instructions fetched each cycle (Total)
system.cpu00.fetch.rateDist::8               92786873     15.93%    100.00% # Number of instructions fetched each cycle (Total)
system.cpu00.fetch.rateDist::overflows              0      0.00%    100.00% # Number of instructions fetched each cycle (Total)
system.cpu00.fetch.rateDist::min_value              0                       # Number of instructions fetched each cycle (Total)
system.cpu00.fetch.rateDist::max_value              8                       # Number of instructions fetched each cycle (Total)
system.cpu00.fetch.rateDist::total          582523008                       # Number of instructions fetched each cycle (Total)
system.cpu00.fp_regfile_reads              1266612055                       # number of floating regfile reads
system.cpu00.fp_regfile_writes              804423241                       # number of floating regfile writes
system.cpu00.idleCycles                         46078                       # Total number of cycles that the CPU has spent unscheduled due to idling
system.cpu00.iew.branchMispredicts            3963350                       # Number of branch mispredicts detected at execute
system.cpu00.iew.exec_branches               95022721                       # Number of branches executed
system.cpu00.iew.exec_nop                           0                       # number of nop insts executed
system.cpu00.iew.exec_rate                   3.375016                       # Inst execution rate
system.cpu00.iew.exec_refs                  735588627                       # number of memory reference insts executed
system.cpu00.iew.exec_stores                  4164399                       # Number of stores executed
system.cpu00.iew.exec_swp                           0                       # number of swp insts executed
system.cpu00.iew.iewBlockCycles             148966832                       # Number of cycles IEW is blocking
system.cpu00.iew.iewDispLoadInsts           183605610                       # Number of dispatched load instructions
system.cpu00.iew.iewDispNonSpecInsts             9423                       # Number of dispatched non-speculative instructions
system.cpu00.iew.iewDispSquashedInsts             357                       # Number of squashed instructions skipped by dispatch
system.cpu00.iew.iewDispStoreInsts            4192750                       # Number of dispatched store instructions
system.cpu00.iew.iewDispatchedInsts        1455213527                       # Number of instructions dispatched to IQ
system.cpu00.iew.iewExecLoadInsts           731424228                       # Number of load instructions executed
system.cpu00.iew.iewExecSquashedInsts        10838097                       # Number of squashed instructions skipped in execute
system.cpu00.iew.iewExecutedInsts          1966180058                       # Number of executed instructions
system.cpu00.iew.iewIQFullEvents              3828535                       # Number of times the IQ has become full, causing a stall
system.cpu00.iew.iewIdleCycles                      0                       # Number of cycles IEW is idle
system.cpu00.iew.iewLSQFullEvents              150136                       # Number of times the LSQ has become full, causing a stall
system.cpu00.iew.iewSquashCycles              3962245                       # Number of cycles IEW is squashing
system.cpu00.iew.iewUnblockCycles             4593748                       # Number of cycles IEW is unblocking
system.cpu00.iew.lsq.thread0.blockedLoads            0                       # Number of blocked loads due to partial load-store forwarding
system.cpu00.iew.lsq.thread0.cacheBlocked    117559839                       # Number of times an access to memory failed due to the cache being blocked
system.cpu00.iew.lsq.thread0.forwLoads          40552                       # Number of loads that had data forwarded from stores
system.cpu00.iew.lsq.thread0.ignoredResponses          194                       # Number of memory responses ignored because the instruction is squashed
system.cpu00.iew.lsq.thread0.invAddrLoads            0                       # Number of loads ignored due to an invalid address
system.cpu00.iew.lsq.thread0.invAddrSwpfs            0                       # Number of software prefetches ignored due to an invalid address
system.cpu00.iew.lsq.thread0.memOrderViolation          154                       # Number of memory ordering violations
system.cpu00.iew.lsq.thread0.rescheduledLoads            4                       # Number of loads that were rescheduled
system.cpu00.iew.lsq.thread0.squashedLoads      8130094                       # Number of loads squashed
system.cpu00.iew.lsq.thread0.squashedStores        57431                       # Number of stores squashed
system.cpu00.iew.memOrderViolationEvents          154                       # Number of memory order violations
system.cpu00.iew.predictedNotTakenIncorrect        22640                       # Number of branches that were predicted not taken incorrectly
system.cpu00.iew.predictedTakenIncorrect      3940710                       # Number of branches that were predicted taken incorrectly
system.cpu00.iew.wb_consumers              1815426391                       # num instructions consuming a value
system.cpu00.iew.wb_count                  1411305268                       # cumulative count of insts written-back
system.cpu00.iew.wb_fanout                   0.585795                       # average fanout of values written-back
system.cpu00.iew.wb_producers              1063468153                       # num instructions producing a value
system.cpu00.iew.wb_rate                     2.422554                       # insts written-back per cycle
system.cpu00.iew.wb_sent                   1412313961                       # cumulative count of insts sent to commit
system.cpu00.int_regfile_reads             2012388815                       # number of integer regfile reads
system.cpu00.int_regfile_writes             496138460                       # number of integer regfile writes
system.cpu00.interrupts.pwrStateResidencyTicks::UNDEFINED 196105391640                       # Cumulative time (in ticks) in various power states
system.cpu00.ipc                             1.429887                       # IPC: Instructions Per Cycle
system.cpu00.ipc_total                       1.429887                       # IPC: Total IPC of All Threads
system.cpu00.iq.FU_type_0::No_OpClass         3969419      0.20%      0.20% # Type of FU issued
system.cpu00.iq.FU_type_0::IntAlu           558778797     28.26%     28.46% # Type of FU issued
system.cpu00.iq.FU_type_0::IntMult              24837      0.00%     28.47% # Type of FU issued
system.cpu00.iq.FU_type_0::IntDiv              124934      0.01%     28.47% # Type of FU issued
system.cpu00.iq.FU_type_0::FloatAdd         141613714      7.16%     35.64% # Type of FU issued
system.cpu00.iq.FU_type_0::FloatCmp                 0      0.00%     35.64% # Type of FU issued
system.cpu00.iq.FU_type_0::FloatCvt                 0      0.00%     35.64% # Type of FU issued
system.cpu00.iq.FU_type_0::FloatMult                0      0.00%     35.64% # Type of FU issued
system.cpu00.iq.FU_type_0::FloatMultAcc             0      0.00%     35.64% # Type of FU issued
system.cpu00.iq.FU_type_0::FloatDiv                 0      0.00%     35.64% # Type of FU issued
system.cpu00.iq.FU_type_0::FloatMisc                0      0.00%     35.64% # Type of FU issued
system.cpu00.iq.FU_type_0::FloatSqrt                0      0.00%     35.64% # Type of FU issued
system.cpu00.iq.FU_type_0::SimdAdd                  0      0.00%     35.64% # Type of FU issued
system.cpu00.iq.FU_type_0::SimdAddAcc               0      0.00%     35.64% # Type of FU issued
system.cpu00.iq.FU_type_0::SimdAlu          145565764      7.36%     43.00% # Type of FU issued
system.cpu00.iq.FU_type_0::SimdCmp                  0      0.00%     43.00% # Type of FU issued
system.cpu00.iq.FU_type_0::SimdCvt                  0      0.00%     43.00% # Type of FU issued
system.cpu00.iq.FU_type_0::SimdMisc              2252      0.00%     43.00% # Type of FU issued
system.cpu00.iq.FU_type_0::SimdMult                 0      0.00%     43.00% # Type of FU issued
system.cpu00.iq.FU_type_0::SimdMultAcc              0      0.00%     43.00% # Type of FU issued
system.cpu00.iq.FU_type_0::SimdShift                0      0.00%     43.00% # Type of FU issued
system.cpu00.iq.FU_type_0::SimdShiftAcc             0      0.00%     43.00% # Type of FU issued
system.cpu00.iq.FU_type_0::SimdDiv                  0      0.00%     43.00% # Type of FU issued
system.cpu00.iq.FU_type_0::SimdSqrt                 0      0.00%     43.00% # Type of FU issued
system.cpu00.iq.FU_type_0::SimdFloatAdd     125868963      6.37%     49.36% # Type of FU issued
system.cpu00.iq.FU_type_0::SimdFloatAlu             0      0.00%     49.36% # Type of FU issued
system.cpu00.iq.FU_type_0::SimdFloatCmp             0      0.00%     49.36% # Type of FU issued
system.cpu00.iq.FU_type_0::SimdFloatCvt     196648437      9.95%     59.31% # Type of FU issued
system.cpu00.iq.FU_type_0::SimdFloatDiv           141      0.00%     59.31% # Type of FU issued
system.cpu00.iq.FU_type_0::SimdFloatMisc            0      0.00%     59.31% # Type of FU issued
system.cpu00.iq.FU_type_0::SimdFloatMult     62925737      3.18%     62.49% # Type of FU issued
system.cpu00.iq.FU_type_0::SimdFloatMultAcc            0      0.00%     62.49% # Type of FU issued
system.cpu00.iq.FU_type_0::SimdFloatSqrt      3932790      0.20%     62.69% # Type of FU issued
system.cpu00.iq.FU_type_0::SimdReduceAdd            0      0.00%     62.69% # Type of FU issued
system.cpu00.iq.FU_type_0::SimdReduceAlu            0      0.00%     62.69% # Type of FU issued
system.cpu00.iq.FU_type_0::SimdReduceCmp            0      0.00%     62.69% # Type of FU issued
system.cpu00.iq.FU_type_0::SimdFloatReduceAdd            0      0.00%     62.69% # Type of FU issued
system.cpu00.iq.FU_type_0::SimdFloatReduceCmp            0      0.00%     62.69% # Type of FU issued
system.cpu00.iq.FU_type_0::SimdAes                  0      0.00%     62.69% # Type of FU issued
system.cpu00.iq.FU_type_0::SimdAesMix               0      0.00%     62.69% # Type of FU issued
system.cpu00.iq.FU_type_0::SimdSha1Hash             0      0.00%     62.69% # Type of FU issued
system.cpu00.iq.FU_type_0::SimdSha1Hash2            0      0.00%     62.69% # Type of FU issued
system.cpu00.iq.FU_type_0::SimdSha256Hash            0      0.00%     62.69% # Type of FU issued
system.cpu00.iq.FU_type_0::SimdSha256Hash2            0      0.00%     62.69% # Type of FU issued
system.cpu00.iq.FU_type_0::SimdShaSigma2            0      0.00%     62.69% # Type of FU issued
system.cpu00.iq.FU_type_0::SimdShaSigma3            0      0.00%     62.69% # Type of FU issued
system.cpu00.iq.FU_type_0::SimdPredAlu              0      0.00%     62.69% # Type of FU issued
system.cpu00.iq.FU_type_0::MemRead          100119918      5.06%     67.76% # Type of FU issued
system.cpu00.iq.FU_type_0::MemWrite           4115333      0.21%     67.97% # Type of FU issued
system.cpu00.iq.FU_type_0::FloatMemRead     633276813     32.03%    100.00% # Type of FU issued
system.cpu00.iq.FU_type_0::FloatMemWrite        50308      0.00%    100.00% # Type of FU issued
system.cpu00.iq.FU_type_0::IprAccess                0      0.00%    100.00% # Type of FU issued
system.cpu00.iq.FU_type_0::InstPrefetch             0      0.00%    100.00% # Type of FU issued
system.cpu00.iq.FU_type_0::total           1977018157                       # Type of FU issued
system.cpu00.iq.fp_alu_accesses            1434679785                       # Number of floating point alu accesses
system.cpu00.iq.fp_inst_queue_reads        2752438968                       # Number of floating instruction queue reads
system.cpu00.iq.fp_inst_queue_wakeup_accesses    811360647                       # Number of floating instruction queue wakeup accesses
system.cpu00.iq.fp_inst_queue_writes        891332105                       # Number of floating instruction queue writes
system.cpu00.iq.fu_busy_cnt                 130686808                       # FU busy when requested
system.cpu00.iq.fu_busy_rate                 0.066103                       # FU busy rate (busy events/executed inst)
system.cpu00.iq.fu_full::No_OpClass                 0      0.00%      0.00% # attempts to use FU when none available
system.cpu00.iq.fu_full::IntAlu                318384      0.24%      0.24% # attempts to use FU when none available
system.cpu00.iq.fu_full::IntMult                    0      0.00%      0.24% # attempts to use FU when none available
system.cpu00.iq.fu_full::IntDiv                     0      0.00%      0.24% # attempts to use FU when none available
system.cpu00.iq.fu_full::FloatAdd                   0      0.00%      0.24% # attempts to use FU when none available
system.cpu00.iq.fu_full::FloatCmp                   0      0.00%      0.24% # attempts to use FU when none available
system.cpu00.iq.fu_full::FloatCvt                   0      0.00%      0.24% # attempts to use FU when none available
system.cpu00.iq.fu_full::FloatMult                  0      0.00%      0.24% # attempts to use FU when none available
system.cpu00.iq.fu_full::FloatMultAcc               0      0.00%      0.24% # attempts to use FU when none available
system.cpu00.iq.fu_full::FloatDiv                   0      0.00%      0.24% # attempts to use FU when none available
system.cpu00.iq.fu_full::FloatMisc                  0      0.00%      0.24% # attempts to use FU when none available
system.cpu00.iq.fu_full::FloatSqrt                  0      0.00%      0.24% # attempts to use FU when none available
system.cpu00.iq.fu_full::SimdAdd                    0      0.00%      0.24% # attempts to use FU when none available
system.cpu00.iq.fu_full::SimdAddAcc                 0      0.00%      0.24% # attempts to use FU when none available
system.cpu00.iq.fu_full::SimdAlu             21482401     16.44%     16.68% # attempts to use FU when none available
system.cpu00.iq.fu_full::SimdCmp                    0      0.00%     16.68% # attempts to use FU when none available
system.cpu00.iq.fu_full::SimdCvt                    0      0.00%     16.68% # attempts to use FU when none available
system.cpu00.iq.fu_full::SimdMisc                   0      0.00%     16.68% # attempts to use FU when none available
system.cpu00.iq.fu_full::SimdMult                   0      0.00%     16.68% # attempts to use FU when none available
system.cpu00.iq.fu_full::SimdMultAcc                0      0.00%     16.68% # attempts to use FU when none available
system.cpu00.iq.fu_full::SimdShift                  0      0.00%     16.68% # attempts to use FU when none available
system.cpu00.iq.fu_full::SimdShiftAcc               0      0.00%     16.68% # attempts to use FU when none available
system.cpu00.iq.fu_full::SimdDiv                    0      0.00%     16.68% # attempts to use FU when none available
system.cpu00.iq.fu_full::SimdSqrt                   0      0.00%     16.68% # attempts to use FU when none available
system.cpu00.iq.fu_full::SimdFloatAdd         3914575      3.00%     19.68% # attempts to use FU when none available
system.cpu00.iq.fu_full::SimdFloatAlu               0      0.00%     19.68% # attempts to use FU when none available
system.cpu00.iq.fu_full::SimdFloatCmp               0      0.00%     19.68% # attempts to use FU when none available
system.cpu00.iq.fu_full::SimdFloatCvt         3681870      2.82%     22.49% # attempts to use FU when none available
system.cpu00.iq.fu_full::SimdFloatDiv               0      0.00%     22.49% # attempts to use FU when none available
system.cpu00.iq.fu_full::SimdFloatMisc              0      0.00%     22.49% # attempts to use FU when none available
system.cpu00.iq.fu_full::SimdFloatMult          17459      0.01%     22.51% # attempts to use FU when none available
system.cpu00.iq.fu_full::SimdFloatMultAcc            0      0.00%     22.51% # attempts to use FU when none available
system.cpu00.iq.fu_full::SimdFloatSqrt              0      0.00%     22.51% # attempts to use FU when none available
system.cpu00.iq.fu_full::SimdReduceAdd              0      0.00%     22.51% # attempts to use FU when none available
system.cpu00.iq.fu_full::SimdReduceAlu              0      0.00%     22.51% # attempts to use FU when none available
system.cpu00.iq.fu_full::SimdReduceCmp              0      0.00%     22.51% # attempts to use FU when none available
system.cpu00.iq.fu_full::SimdFloatReduceAdd            0      0.00%     22.51% # attempts to use FU when none available
system.cpu00.iq.fu_full::SimdFloatReduceCmp            0      0.00%     22.51% # attempts to use FU when none available
system.cpu00.iq.fu_full::SimdAes                    0      0.00%     22.51% # attempts to use FU when none available
system.cpu00.iq.fu_full::SimdAesMix                 0      0.00%     22.51% # attempts to use FU when none available
system.cpu00.iq.fu_full::SimdSha1Hash               0      0.00%     22.51% # attempts to use FU when none available
system.cpu00.iq.fu_full::SimdSha1Hash2              0      0.00%     22.51% # attempts to use FU when none available
system.cpu00.iq.fu_full::SimdSha256Hash             0      0.00%     22.51% # attempts to use FU when none available
system.cpu00.iq.fu_full::SimdSha256Hash2            0      0.00%     22.51% # attempts to use FU when none available
system.cpu00.iq.fu_full::SimdShaSigma2              0      0.00%     22.51% # attempts to use FU when none available
system.cpu00.iq.fu_full::SimdShaSigma3              0      0.00%     22.51% # attempts to use FU when none available
system.cpu00.iq.fu_full::SimdPredAlu                0      0.00%     22.51% # attempts to use FU when none available
system.cpu00.iq.fu_full::MemRead             13379103     10.24%     32.75% # attempts to use FU when none available
system.cpu00.iq.fu_full::MemWrite               60836      0.05%     32.79% # attempts to use FU when none available
system.cpu00.iq.fu_full::FloatMemRead        87831874     67.21%    100.00% # attempts to use FU when none available
system.cpu00.iq.fu_full::FloatMemWrite            306      0.00%    100.00% # attempts to use FU when none available
system.cpu00.iq.fu_full::IprAccess                  0      0.00%    100.00% # attempts to use FU when none available
system.cpu00.iq.fu_full::InstPrefetch               0      0.00%    100.00% # attempts to use FU when none available
system.cpu00.iq.int_alu_accesses            669055761                       # Number of integer alu accesses
system.cpu00.iq.int_inst_queue_reads       1914822246                       # Number of integer instruction queue reads
system.cpu00.iq.int_inst_queue_wakeup_accesses    599944621                       # Number of integer instruction queue wakeup accesses
system.cpu00.iq.int_inst_queue_writes       622460237                       # Number of integer instruction queue writes
system.cpu00.iq.iqInstsAdded               1455185465                       # Number of instructions added to the IQ (excludes non-spec)
system.cpu00.iq.iqInstsIssued              1977018157                       # Number of instructions issued
system.cpu00.iq.iqNonSpecInstsAdded             28062                       # Number of non-speculative instructions added to the IQ
system.cpu00.iq.iqSquashedInstsExamined      58578664                       # Number of squashed instructions iterated over during squash; mainly for profiling
system.cpu00.iq.iqSquashedInstsIssued           15086                       # Number of squashed instructions issued
system.cpu00.iq.iqSquashedNonSpecRemoved         3713                       # Number of squashed non-spec instructions that were removed
system.cpu00.iq.iqSquashedOperandsExamined     89735478                       # Number of squashed operands that are examined and possibly removed from graph
system.cpu00.iq.issued_per_cycle::samples    582523008                       # Number of insts issued each cycle
system.cpu00.iq.issued_per_cycle::mean       3.393889                       # Number of insts issued each cycle
system.cpu00.iq.issued_per_cycle::stdev      2.703817                       # Number of insts issued each cycle
system.cpu00.iq.issued_per_cycle::underflows            0      0.00%      0.00% # Number of insts issued each cycle
system.cpu00.iq.issued_per_cycle::0         144624309     24.83%     24.83% # Number of insts issued each cycle
system.cpu00.iq.issued_per_cycle::1          46780872      8.03%     32.86% # Number of insts issued each cycle
system.cpu00.iq.issued_per_cycle::2          49964766      8.58%     41.44% # Number of insts issued each cycle
system.cpu00.iq.issued_per_cycle::3          47450949      8.15%     49.58% # Number of insts issued each cycle
system.cpu00.iq.issued_per_cycle::4          78856009     13.54%     63.12% # Number of insts issued each cycle
system.cpu00.iq.issued_per_cycle::5          64303418     11.04%     74.16% # Number of insts issued each cycle
system.cpu00.iq.issued_per_cycle::6          45294886      7.78%     81.93% # Number of insts issued each cycle
system.cpu00.iq.issued_per_cycle::7          62737928     10.77%     92.70% # Number of insts issued each cycle
system.cpu00.iq.issued_per_cycle::8          42509871      7.30%    100.00% # Number of insts issued each cycle
system.cpu00.iq.issued_per_cycle::overflows            0      0.00%    100.00% # Number of insts issued each cycle
system.cpu00.iq.issued_per_cycle::min_value            0                       # Number of insts issued each cycle
system.cpu00.iq.issued_per_cycle::max_value            8                       # Number of insts issued each cycle
system.cpu00.iq.issued_per_cycle::total     582523008                       # Number of insts issued each cycle
system.cpu00.iq.rate                         3.393620                       # Inst issue rate
system.cpu00.iq.vec_alu_accesses                    0                       # Number of vector alu accesses
system.cpu00.iq.vec_inst_queue_reads                0                       # Number of vector instruction queue reads
system.cpu00.iq.vec_inst_queue_wakeup_accesses            0                       # Number of vector instruction queue wakeup accesses
system.cpu00.iq.vec_inst_queue_writes               0                       # Number of vector instruction queue writes
system.cpu00.itb.rdAccesses                         0                       # TLB accesses on read requests
system.cpu00.itb.rdMisses                           0                       # TLB misses on read requests
system.cpu00.itb.walker.pwrStateResidencyTicks::UNDEFINED 196105391640                       # Cumulative time (in ticks) in various power states
system.cpu00.itb.wrAccesses                 163910405                       # TLB accesses on write requests
system.cpu00.itb.wrMisses                         217                       # TLB misses on write requests
system.cpu00.memDep0.conflictingLoads          126574                       # Number of conflicting loads.
system.cpu00.memDep0.conflictingStores          58408                       # Number of conflicting stores.
system.cpu00.memDep0.insertedLoads          183605610                       # Number of loads inserted to the mem dependence unit.
system.cpu00.memDep0.insertedStores           4192750                       # Number of stores inserted to the mem dependence unit.
system.cpu00.misc_regfile_reads             937660038                       # number of misc regfile reads
system.cpu00.numCycles                      582569086                       # number of cpu cycles simulated
system.cpu00.numWorkItemsCompleted                  0                       # number of work items this cpu completed
system.cpu00.numWorkItemsStarted                    0                       # number of work items this cpu started
system.cpu00.pwrStateResidencyTicks::ON  196105391640                       # Cumulative time (in ticks) in various power states
system.cpu00.rename.BlockCycles             178187225                       # Number of cycles rename is blocking
system.cpu00.rename.CommittedMaps          1613266383                       # Number of HB maps that are committed
system.cpu00.rename.IQFullEvents             49616611                       # Number of times rename has blocked due to IQ full
system.cpu00.rename.IdleCycles              127379444                       # Number of cycles rename is idle
system.cpu00.rename.LQFullEvents                 1032                       # Number of times rename has blocked due to LQ full
system.cpu00.rename.ROBFullEvents               30405                       # Number of times rename has blocked due to ROB full
system.cpu00.rename.RenameLookups          3185088071                       # Number of register rename lookups that rename has made
system.cpu00.rename.RenamedInsts           1482965347                       # Number of instructions processed by rename
system.cpu00.rename.RenamedOperands        1715769424                       # Number of destination operands rename has renamed
system.cpu00.rename.RunCycles               219372842                       # Number of cycles rename is running
system.cpu00.rename.SQFullEvents               467977                       # Number of times rename has blocked due to SQ full
system.cpu00.rename.SquashCycles              3962245                       # Number of cycles rename is squashing
system.cpu00.rename.UnblockCycles            53589325                       # Number of cycles rename is unblocking
system.cpu00.rename.UndoneMaps              102503041                       # Number of HB maps that are undone due to squashing
system.cpu00.rename.fp_rename_lookups      1358329443                       # Number of floating rename lookups
system.cpu00.rename.int_rename_lookups      947380663                       # Number of integer rename lookups
system.cpu00.rename.serializeStallCycles        31927                       # count of cycles rename stalled for serializing inst
system.cpu00.rename.serializingInsts              115                       # count of serializing insts renamed
system.cpu00.rename.skidInsts               109346682                       # count of insts added to the skid buffer
system.cpu00.rename.tempSerializingInsts          114                       # count of temporary serializing insts renamed
system.cpu00.rob.rob_reads                 1950586664                       # The number of ROB reads
system.cpu00.rob.rob_writes                2918489618                       # The number of ROB writes
system.cpu00.timesIdled                           168                       # Number of times that the entire CPU went into an idle state and unscheduled itself
system.cpu00.workload.numSyscalls                  78                       # Number of system calls
system.cpu01.apic_clk_domain.clock               5328                       # Clock period in ticks
system.cpu01.branchPred.BTBCorrect                  0                       # Number of correct BTB predictions (this stat may not work properly.
system.cpu01.branchPred.BTBHitPct            0.000000                       # BTB Hit Percentage
system.cpu01.branchPred.BTBHits                     0                       # Number of BTB hits
system.cpu01.branchPred.BTBLookups           91262824                       # Number of BTB lookups
system.cpu01.branchPred.RASInCorrect              183                       # Number of incorrect RAS predictions.
system.cpu01.branchPred.condIncorrect         3955426                       # Number of conditional branches incorrect
system.cpu01.branchPred.condPredicted       109459544                       # Number of conditional branches predicted
system.cpu01.branchPred.indirectHits         83236731                       # Number of indirect target hits.
system.cpu01.branchPred.indirectLookups      91262824                       # Number of indirect predictor lookups.
system.cpu01.branchPred.indirectMisses        8026093                       # Number of indirect misses.
system.cpu01.branchPred.lookups             109459544                       # Number of BP lookups
system.cpu01.branchPred.usedRAS               3943836                       # Number of times the RAS was used to get a target.
system.cpu01.branchPredindirectMispredicted          719                       # Number of mispredicted indirect branches.
system.cpu01.cc_regfile_reads               501708796                       # number of cc regfile reads
system.cpu01.cc_regfile_writes              355755609                       # number of cc regfile writes
system.cpu01.commit.amos                            0                       # Number of atomic instructions committed
system.cpu01.commit.branchMispredicts         3956028                       # The number of times a branch was mispredicted
system.cpu01.commit.branches                103454386                       # Number of branches committed
system.cpu01.commit.bw_lim_events            78940907                       # number cycles where commit BW limit reached
system.cpu01.commit.commitNonSpecStalls         19552                       # The number of times commit has been forced to stall to communicate backwards
system.cpu01.commit.commitSquashedInsts      58024674                       # The number of squashed insts skipped by commit
system.cpu01.commit.committedInsts          862476271                       # Number of instructions committed
system.cpu01.commit.committedOps           1446950563                       # Number of ops (including micro ops) committed
system.cpu01.commit.committed_per_cycle::samples    567752780                       # Number of insts commited each cycle
system.cpu01.commit.committed_per_cycle::mean     2.548557                       # Number of insts commited each cycle
system.cpu01.commit.committed_per_cycle::stdev     3.162079                       # Number of insts commited each cycle
system.cpu01.commit.committed_per_cycle::underflows            0      0.00%      0.00% # Number of insts commited each cycle
system.cpu01.commit.committed_per_cycle::0    297239260     52.35%     52.35% # Number of insts commited each cycle
system.cpu01.commit.committed_per_cycle::1     22632261      3.99%     56.34% # Number of insts commited each cycle
system.cpu01.commit.committed_per_cycle::2      9752419      1.72%     58.06% # Number of insts commited each cycle
system.cpu01.commit.committed_per_cycle::3     64756404     11.41%     69.46% # Number of insts commited each cycle
system.cpu01.commit.committed_per_cycle::4     13510219      2.38%     71.84% # Number of insts commited each cycle
system.cpu01.commit.committed_per_cycle::5     12813411      2.26%     74.10% # Number of insts commited each cycle
system.cpu01.commit.committed_per_cycle::6     15846228      2.79%     76.89% # Number of insts commited each cycle
system.cpu01.commit.committed_per_cycle::7     52261671      9.21%     86.10% # Number of insts commited each cycle
system.cpu01.commit.committed_per_cycle::8     78940907     13.90%    100.00% # Number of insts commited each cycle
system.cpu01.commit.committed_per_cycle::overflows            0      0.00%    100.00% # Number of insts commited each cycle
system.cpu01.commit.committed_per_cycle::min_value            0                       # Number of insts commited each cycle
system.cpu01.commit.committed_per_cycle::max_value            8                       # Number of insts commited each cycle
system.cpu01.commit.committed_per_cycle::total    567752780                       # Number of insts commited each cycle
system.cpu01.commit.fp_insts                802387007                       # Number of committed floating point instructions.
system.cpu01.commit.function_calls            3941767                       # Number of function calls committed.
system.cpu01.commit.int_insts               765179411                       # Number of committed integer instructions.
system.cpu01.commit.loads                   179630314                       # Number of loads committed
system.cpu01.commit.membars                     13024                       # Number of memory barriers committed
system.cpu01.commit.op_class_0::No_OpClass      3935424      0.27%      0.27% # Class of committed instruction
system.cpu01.commit.op_class_0::IntAlu      594724108     41.10%     41.37% # Class of committed instruction
system.cpu01.commit.op_class_0::IntMult            30      0.00%     41.37% # Class of committed instruction
system.cpu01.commit.op_class_0::IntDiv            210      0.00%     41.37% # Class of committed instruction
system.cpu01.commit.op_class_0::FloatAdd    133714527      9.24%     50.62% # Class of committed instruction
system.cpu01.commit.op_class_0::FloatCmp            0      0.00%     50.62% # Class of committed instruction
system.cpu01.commit.op_class_0::FloatCvt            0      0.00%     50.62% # Class of committed instruction
system.cpu01.commit.op_class_0::FloatMult            0      0.00%     50.62% # Class of committed instruction
system.cpu01.commit.op_class_0::FloatMultAcc            0      0.00%     50.62% # Class of committed instruction
system.cpu01.commit.op_class_0::FloatDiv            0      0.00%     50.62% # Class of committed instruction
system.cpu01.commit.op_class_0::FloatMisc            0      0.00%     50.62% # Class of committed instruction
system.cpu01.commit.op_class_0::FloatSqrt            0      0.00%     50.62% # Class of committed instruction
system.cpu01.commit.op_class_0::SimdAdd             0      0.00%     50.62% # Class of committed instruction
system.cpu01.commit.op_class_0::SimdAddAcc            0      0.00%     50.62% # Class of committed instruction
system.cpu01.commit.op_class_0::SimdAlu     141580508      9.78%     60.40% # Class of committed instruction
system.cpu01.commit.op_class_0::SimdCmp             0      0.00%     60.40% # Class of committed instruction
system.cpu01.commit.op_class_0::SimdCvt             0      0.00%     60.40% # Class of committed instruction
system.cpu01.commit.op_class_0::SimdMisc         1431      0.00%     60.40% # Class of committed instruction
system.cpu01.commit.op_class_0::SimdMult            0      0.00%     60.40% # Class of committed instruction
system.cpu01.commit.op_class_0::SimdMultAcc            0      0.00%     60.40% # Class of committed instruction
system.cpu01.commit.op_class_0::SimdShift            0      0.00%     60.40% # Class of committed instruction
system.cpu01.commit.op_class_0::SimdShiftAcc            0      0.00%     60.40% # Class of committed instruction
system.cpu01.commit.op_class_0::SimdDiv             0      0.00%     60.40% # Class of committed instruction
system.cpu01.commit.op_class_0::SimdSqrt            0      0.00%     60.40% # Class of committed instruction
system.cpu01.commit.op_class_0::SimdFloatAdd    125866856      8.70%     69.10% # Class of committed instruction
system.cpu01.commit.op_class_0::SimdFloatAlu            0      0.00%     69.10% # Class of committed instruction
system.cpu01.commit.op_class_0::SimdFloatCmp            0      0.00%     69.10% # Class of committed instruction
system.cpu01.commit.op_class_0::SimdFloatCvt    196639086     13.59%     82.69% # Class of committed instruction
system.cpu01.commit.op_class_0::SimdFloatDiv          143      0.00%     82.69% # Class of committed instruction
system.cpu01.commit.op_class_0::SimdFloatMisc            0      0.00%     82.69% # Class of committed instruction
system.cpu01.commit.op_class_0::SimdFloatMult     62925560      4.35%     87.04% # Class of committed instruction
system.cpu01.commit.op_class_0::SimdFloatMultAcc            0      0.00%     87.04% # Class of committed instruction
system.cpu01.commit.op_class_0::SimdFloatSqrt      3932776      0.27%     87.31% # Class of committed instruction
system.cpu01.commit.op_class_0::SimdReduceAdd            0      0.00%     87.31% # Class of committed instruction
system.cpu01.commit.op_class_0::SimdReduceAlu            0      0.00%     87.31% # Class of committed instruction
system.cpu01.commit.op_class_0::SimdReduceCmp            0      0.00%     87.31% # Class of committed instruction
system.cpu01.commit.op_class_0::SimdFloatReduceAdd            0      0.00%     87.31% # Class of committed instruction
system.cpu01.commit.op_class_0::SimdFloatReduceCmp            0      0.00%     87.31% # Class of committed instruction
system.cpu01.commit.op_class_0::SimdAes             0      0.00%     87.31% # Class of committed instruction
system.cpu01.commit.op_class_0::SimdAesMix            0      0.00%     87.31% # Class of committed instruction
system.cpu01.commit.op_class_0::SimdSha1Hash            0      0.00%     87.31% # Class of committed instruction
system.cpu01.commit.op_class_0::SimdSha1Hash2            0      0.00%     87.31% # Class of committed instruction
system.cpu01.commit.op_class_0::SimdSha256Hash            0      0.00%     87.31% # Class of committed instruction
system.cpu01.commit.op_class_0::SimdSha256Hash2            0      0.00%     87.31% # Class of committed instruction
system.cpu01.commit.op_class_0::SimdShaSigma2            0      0.00%     87.31% # Class of committed instruction
system.cpu01.commit.op_class_0::SimdShaSigma3            0      0.00%     87.31% # Class of committed instruction
system.cpu01.commit.op_class_0::SimdPredAlu            0      0.00%     87.31% # Class of committed instruction
system.cpu01.commit.op_class_0::MemRead      49802539      3.44%     90.75% # Class of committed instruction
system.cpu01.commit.op_class_0::MemWrite      3967369      0.27%     91.03% # Class of committed instruction
system.cpu01.commit.op_class_0::FloatMemRead    129827775      8.97%    100.00% # Class of committed instruction
system.cpu01.commit.op_class_0::FloatMemWrite        32221      0.00%    100.00% # Class of committed instruction
system.cpu01.commit.op_class_0::IprAccess            0      0.00%    100.00% # Class of committed instruction
system.cpu01.commit.op_class_0::InstPrefetch            0      0.00%    100.00% # Class of committed instruction
system.cpu01.commit.op_class_0::total      1446950563                       # Class of committed instruction
system.cpu01.commit.refs                    183629904                       # Number of memory references committed
system.cpu01.commit.swp_count                       0                       # Number of s/w prefetches committed
system.cpu01.commit.vec_insts                       0                       # Number of committed Vector instructions.
system.cpu01.committedInsts                 862476271                       # Number of Instructions Simulated
system.cpu01.committedOps                  1446950563                       # Number of Ops (including micro ops) Simulated
system.cpu01.cpi                             0.667580                       # CPI: Cycles Per Instruction
system.cpu01.cpi_total                       0.667580                       # CPI: Total CPI of All Threads
system.cpu01.decode.BlockedCycles           213242655                       # Number of cycles decode is blocked
system.cpu01.decode.DecodedInsts           1540644774                       # Number of instructions handled by decode
system.cpu01.decode.IdleCycles              121309425                       # Number of cycles decode is idle
system.cpu01.decode.RunCycles               207740952                       # Number of cycles decode is running
system.cpu01.decode.SquashCycles              3956341                       # Number of cycles decode is squashing
system.cpu01.decode.UnblockCycles            29514214                       # Number of cycles decode is unblocking
system.cpu01.dtb.rdAccesses                 189602955                       # TLB accesses on read requests
system.cpu01.dtb.rdMisses                        2675                       # TLB misses on read requests
system.cpu01.dtb.walker.pwrStateResidencyTicks::UNDEFINED 196105391640                       # Cumulative time (in ticks) in various power states
system.cpu01.dtb.wrAccesses                   4018656                       # TLB accesses on write requests
system.cpu01.dtb.wrMisses                           7                       # TLB misses on write requests
system.cpu01.fetch.Branches                 109459544                       # Number of branches that fetch encountered
system.cpu01.fetch.CacheLines               163961285                       # Number of cache lines fetched
system.cpu01.fetch.Cycles                   404870695                       # Number of cycles fetch has run and was not squashing or blocked
system.cpu01.fetch.IcacheSquashes              986979                       # Number of outstanding Icache misses that were squashed
system.cpu01.fetch.IcacheWaitRetryStallCycles          444                       # Number of stall cycles due to full MSHR
system.cpu01.fetch.Insts                    939927983                       # Number of instructions fetch has processed
system.cpu01.fetch.MiscStallCycles               1114                       # Number of cycles fetch has spent waiting on interrupts, or bad addresses, or out of MSHRs
system.cpu01.fetch.PendingTrapStallCycles         3977                       # Number of stall cycles due to pending traps
system.cpu01.fetch.SquashCycles               7912682                       # Number of cycles fetch has spent squashing
system.cpu01.fetch.branchRate                0.190109                       # Number of branch fetches per cycle
system.cpu01.fetch.icacheStallCycles        166931016                       # Number of cycles fetch is stalled on an Icache miss
system.cpu01.fetch.predictedBranches         87180567                       # Number of branches that fetch has predicted taken
system.cpu01.fetch.rate                      1.632465                       # Number of inst fetches per cycle
system.cpu01.fetch.rateDist::samples        575763587                       # Number of instructions fetched each cycle (Total)
system.cpu01.fetch.rateDist::mean            2.740845                       # Number of instructions fetched each cycle (Total)
system.cpu01.fetch.rateDist::stdev           3.233123                       # Number of instructions fetched each cycle (Total)
system.cpu01.fetch.rateDist::underflows             0      0.00%      0.00% # Number of instructions fetched each cycle (Total)
system.cpu01.fetch.rateDist::0              311271946     54.06%     54.06% # Number of instructions fetched each cycle (Total)
system.cpu01.fetch.rateDist::1                 119276      0.02%     54.08% # Number of instructions fetched each cycle (Total)
system.cpu01.fetch.rateDist::2               10770174      1.87%     55.95% # Number of instructions fetched each cycle (Total)
system.cpu01.fetch.rateDist::3                4028928      0.70%     56.65% # Number of instructions fetched each cycle (Total)
system.cpu01.fetch.rateDist::4               79374312     13.79%     70.44% # Number of instructions fetched each cycle (Total)
system.cpu01.fetch.rateDist::5                   5879      0.00%     70.44% # Number of instructions fetched each cycle (Total)
system.cpu01.fetch.rateDist::6               61452157     10.67%     81.11% # Number of instructions fetched each cycle (Total)
system.cpu01.fetch.rateDist::7               11834651      2.06%     83.17% # Number of instructions fetched each cycle (Total)
system.cpu01.fetch.rateDist::8               96906264     16.83%    100.00% # Number of instructions fetched each cycle (Total)
system.cpu01.fetch.rateDist::overflows              0      0.00%    100.00% # Number of instructions fetched each cycle (Total)
system.cpu01.fetch.rateDist::min_value              0                       # Number of instructions fetched each cycle (Total)
system.cpu01.fetch.rateDist::max_value              8                       # Number of instructions fetched each cycle (Total)
system.cpu01.fetch.rateDist::total          575763587                       # Number of instructions fetched each cycle (Total)
system.cpu01.fp_regfile_reads              1266584778                       # number of floating regfile reads
system.cpu01.fp_regfile_writes              804409749                       # number of floating regfile writes
system.cpu01.idleCycles                          8492                       # Total number of cycles that the CPU has spent unscheduled due to idling
system.cpu01.iew.branchMispredicts            3957031                       # Number of branch mispredicts detected at execute
system.cpu01.iew.exec_branches              103498426                       # Number of branches executed
system.cpu01.iew.exec_nop                           0                       # number of nop insts executed
system.cpu01.iew.exec_rate                   3.489772                       # Inst execution rate
system.cpu01.iew.exec_refs                  732685294                       # number of memory reference insts executed
system.cpu01.iew.exec_stores                  4018656                       # Number of stores executed
system.cpu01.iew.exec_swp                           0                       # number of swp insts executed
system.cpu01.iew.iewBlockCycles             134576101                       # Number of cycles IEW is blocking
system.cpu01.iew.iewDispLoadInsts           187704619                       # Number of dispatched load instructions
system.cpu01.iew.iewDispNonSpecInsts             7802                       # Number of dispatched non-speculative instructions
system.cpu01.iew.iewDispSquashedInsts              74                       # Number of squashed instructions skipped by dispatch
system.cpu01.iew.iewDispStoreInsts            4024968                       # Number of dispatched store instructions
system.cpu01.iew.iewDispatchedInsts        1504982057                       # Number of instructions dispatched to IQ
system.cpu01.iew.iewExecLoadInsts           728666638                       # Number of load instructions executed
system.cpu01.iew.iewExecSquashedInsts        10819517                       # Number of squashed instructions skipped in execute
system.cpu01.iew.iewExecutedInsts          2009313512                       # Number of executed instructions
system.cpu01.iew.iewIQFullEvents              3783303                       # Number of times the IQ has become full, causing a stall
system.cpu01.iew.iewIdleCycles                      0                       # Number of cycles IEW is idle
system.cpu01.iew.iewLSQFullEvents                   0                       # Number of times the LSQ has become full, causing a stall
system.cpu01.iew.iewSquashCycles              3956341                       # Number of cycles IEW is squashing
system.cpu01.iew.iewUnblockCycles             4428843                       # Number of cycles IEW is unblocking
system.cpu01.iew.lsq.thread0.blockedLoads            0                       # Number of blocked loads due to partial load-store forwarding
system.cpu01.iew.lsq.thread0.cacheBlocked    116426405                       # Number of times an access to memory failed due to the cache being blocked
system.cpu01.iew.lsq.thread0.forwLoads           1885                       # Number of loads that had data forwarded from stores
system.cpu01.iew.lsq.thread0.ignoredResponses            2                       # Number of memory responses ignored because the instruction is squashed
system.cpu01.iew.lsq.thread0.invAddrLoads            0                       # Number of loads ignored due to an invalid address
system.cpu01.iew.lsq.thread0.invAddrSwpfs            0                       # Number of software prefetches ignored due to an invalid address
system.cpu01.iew.lsq.thread0.memOrderViolation           11                       # Number of memory ordering violations
system.cpu01.iew.lsq.thread0.rescheduledLoads            0                       # Number of loads that were rescheduled
system.cpu01.iew.lsq.thread0.squashedLoads      8074304                       # Number of loads squashed
system.cpu01.iew.lsq.thread0.squashedStores        25378                       # Number of stores squashed
system.cpu01.iew.memOrderViolationEvents           11                       # Number of memory order violations
system.cpu01.iew.predictedNotTakenIncorrect        19599                       # Number of branches that were predicted not taken incorrectly
system.cpu01.iew.predictedTakenIncorrect      3937432                       # Number of branches that were predicted taken incorrectly
system.cpu01.iew.wb_consumers              1863543467                       # num instructions consuming a value
system.cpu01.iew.wb_count                  1461319480                       # cumulative count of insts written-back
system.cpu01.iew.wb_fanout                   0.590737                       # average fanout of values written-back
system.cpu01.iew.wb_producers              1100863671                       # num instructions producing a value
system.cpu01.iew.wb_rate                     2.538017                       # insts written-back per cycle
system.cpu01.iew.wb_sent                   1462326761                       # cumulative count of insts sent to commit
system.cpu01.int_regfile_reads             2047667327                       # number of integer regfile reads
system.cpu01.int_regfile_writes             533275662                       # number of integer regfile writes
system.cpu01.interrupts.pwrStateResidencyTicks::UNDEFINED 196105391640                       # Cumulative time (in ticks) in various power states
system.cpu01.ipc                             1.497947                       # IPC: Instructions Per Cycle
system.cpu01.ipc_total                       1.497947                       # IPC: Total IPC of All Threads
system.cpu01.iq.FU_type_0::No_OpClass         3945323      0.20%      0.20% # Type of FU issued
system.cpu01.iq.FU_type_0::IntAlu           604985395     29.95%     30.14% # Type of FU issued
system.cpu01.iq.FU_type_0::IntMult                 31      0.00%     30.14% # Type of FU issued
system.cpu01.iq.FU_type_0::IntDiv                 218      0.00%     30.14% # Type of FU issued
system.cpu01.iq.FU_type_0::FloatAdd         141612877      7.01%     37.15% # Type of FU issued
system.cpu01.iq.FU_type_0::FloatCmp                 0      0.00%     37.15% # Type of FU issued
system.cpu01.iq.FU_type_0::FloatCvt                 0      0.00%     37.15% # Type of FU issued
system.cpu01.iq.FU_type_0::FloatMult                0      0.00%     37.15% # Type of FU issued
system.cpu01.iq.FU_type_0::FloatMultAcc             0      0.00%     37.15% # Type of FU issued
system.cpu01.iq.FU_type_0::FloatDiv                 0      0.00%     37.15% # Type of FU issued
system.cpu01.iq.FU_type_0::FloatMisc                0      0.00%     37.15% # Type of FU issued
system.cpu01.iq.FU_type_0::FloatSqrt                0      0.00%     37.15% # Type of FU issued
system.cpu01.iq.FU_type_0::SimdAdd                  0      0.00%     37.15% # Type of FU issued
system.cpu01.iq.FU_type_0::SimdAddAcc               0      0.00%     37.15% # Type of FU issued
system.cpu01.iq.FU_type_0::SimdAlu          145561641      7.21%     44.36% # Type of FU issued
system.cpu01.iq.FU_type_0::SimdCmp                  0      0.00%     44.36% # Type of FU issued
system.cpu01.iq.FU_type_0::SimdCvt                  0      0.00%     44.36% # Type of FU issued
system.cpu01.iq.FU_type_0::SimdMisc              1495      0.00%     44.36% # Type of FU issued
system.cpu01.iq.FU_type_0::SimdMult                 0      0.00%     44.36% # Type of FU issued
system.cpu01.iq.FU_type_0::SimdMultAcc              0      0.00%     44.36% # Type of FU issued
system.cpu01.iq.FU_type_0::SimdShift                0      0.00%     44.36% # Type of FU issued
system.cpu01.iq.FU_type_0::SimdShiftAcc             0      0.00%     44.36% # Type of FU issued
system.cpu01.iq.FU_type_0::SimdDiv                  0      0.00%     44.36% # Type of FU issued
system.cpu01.iq.FU_type_0::SimdSqrt                 0      0.00%     44.36% # Type of FU issued
system.cpu01.iq.FU_type_0::SimdFloatAdd     125867521      6.23%     50.59% # Type of FU issued
system.cpu01.iq.FU_type_0::SimdFloatAlu             0      0.00%     50.59% # Type of FU issued
system.cpu01.iq.FU_type_0::SimdFloatCmp             0      0.00%     50.59% # Type of FU issued
system.cpu01.iq.FU_type_0::SimdFloatCvt     196647936      9.73%     60.32% # Type of FU issued
system.cpu01.iq.FU_type_0::SimdFloatDiv           145      0.00%     60.32% # Type of FU issued
system.cpu01.iq.FU_type_0::SimdFloatMisc            0      0.00%     60.32% # Type of FU issued
system.cpu01.iq.FU_type_0::SimdFloatMult     62925615      3.11%     63.44% # Type of FU issued
system.cpu01.iq.FU_type_0::SimdFloatMultAcc            0      0.00%     63.44% # Type of FU issued
system.cpu01.iq.FU_type_0::SimdFloatSqrt      3932779      0.19%     63.63% # Type of FU issued
system.cpu01.iq.FU_type_0::SimdReduceAdd            0      0.00%     63.63% # Type of FU issued
system.cpu01.iq.FU_type_0::SimdReduceAlu            0      0.00%     63.63% # Type of FU issued
system.cpu01.iq.FU_type_0::SimdReduceCmp            0      0.00%     63.63% # Type of FU issued
system.cpu01.iq.FU_type_0::SimdFloatReduceAdd            0      0.00%     63.63% # Type of FU issued
system.cpu01.iq.FU_type_0::SimdFloatReduceCmp            0      0.00%     63.63% # Type of FU issued
system.cpu01.iq.FU_type_0::SimdAes                  0      0.00%     63.63% # Type of FU issued
system.cpu01.iq.FU_type_0::SimdAesMix               0      0.00%     63.63% # Type of FU issued
system.cpu01.iq.FU_type_0::SimdSha1Hash             0      0.00%     63.63% # Type of FU issued
system.cpu01.iq.FU_type_0::SimdSha1Hash2            0      0.00%     63.63% # Type of FU issued
system.cpu01.iq.FU_type_0::SimdSha256Hash            0      0.00%     63.63% # Type of FU issued
system.cpu01.iq.FU_type_0::SimdSha256Hash2            0      0.00%     63.63% # Type of FU issued
system.cpu01.iq.FU_type_0::SimdShaSigma2            0      0.00%     63.63% # Type of FU issued
system.cpu01.iq.FU_type_0::SimdShaSigma3            0      0.00%     63.63% # Type of FU issued
system.cpu01.iq.FU_type_0::SimdPredAlu              0      0.00%     63.63% # Type of FU issued
system.cpu01.iq.FU_type_0::MemRead          101663041      5.03%     68.67% # Type of FU issued
system.cpu01.iq.FU_type_0::MemWrite           3986427      0.20%     68.86% # Type of FU issued
system.cpu01.iq.FU_type_0::FloatMemRead     628969966     31.14%    100.00% # Type of FU issued
system.cpu01.iq.FU_type_0::FloatMemWrite        32620      0.00%    100.00% # Type of FU issued
system.cpu01.iq.FU_type_0::IprAccess                0      0.00%    100.00% # Type of FU issued
system.cpu01.iq.FU_type_0::InstPrefetch             0      0.00%    100.00% # Type of FU issued
system.cpu01.iq.FU_type_0::total           2020133030                       # Type of FU issued
system.cpu01.iq.fp_alu_accesses            1429054502                       # Number of floating point alu accesses
system.cpu01.iq.fp_inst_queue_reads        2742480930                       # Number of floating instruction queue reads
system.cpu01.iq.fp_inst_queue_wakeup_accesses    811329579                       # Number of floating instruction queue wakeup accesses
system.cpu01.iq.fp_inst_queue_writes        891293323                       # Number of floating instruction queue writes
system.cpu01.iq.fu_busy_cnt                 128579935                       # FU busy when requested
system.cpu01.iq.fu_busy_rate                 0.063649                       # FU busy rate (busy events/executed inst)
system.cpu01.iq.fu_full::No_OpClass                 0      0.00%      0.00% # attempts to use FU when none available
system.cpu01.iq.fu_full::IntAlu                384516      0.30%      0.30% # attempts to use FU when none available
system.cpu01.iq.fu_full::IntMult                    0      0.00%      0.30% # attempts to use FU when none available
system.cpu01.iq.fu_full::IntDiv                     0      0.00%      0.30% # attempts to use FU when none available
system.cpu01.iq.fu_full::FloatAdd                   0      0.00%      0.30% # attempts to use FU when none available
system.cpu01.iq.fu_full::FloatCmp                   0      0.00%      0.30% # attempts to use FU when none available
system.cpu01.iq.fu_full::FloatCvt                   0      0.00%      0.30% # attempts to use FU when none available
system.cpu01.iq.fu_full::FloatMult                  0      0.00%      0.30% # attempts to use FU when none available
system.cpu01.iq.fu_full::FloatMultAcc               0      0.00%      0.30% # attempts to use FU when none available
system.cpu01.iq.fu_full::FloatDiv                   0      0.00%      0.30% # attempts to use FU when none available
system.cpu01.iq.fu_full::FloatMisc                  0      0.00%      0.30% # attempts to use FU when none available
system.cpu01.iq.fu_full::FloatSqrt                  0      0.00%      0.30% # attempts to use FU when none available
system.cpu01.iq.fu_full::SimdAdd                    0      0.00%      0.30% # attempts to use FU when none available
system.cpu01.iq.fu_full::SimdAddAcc                 0      0.00%      0.30% # attempts to use FU when none available
system.cpu01.iq.fu_full::SimdAlu             21034200     16.36%     16.66% # attempts to use FU when none available
system.cpu01.iq.fu_full::SimdCmp                    0      0.00%     16.66% # attempts to use FU when none available
system.cpu01.iq.fu_full::SimdCvt                    0      0.00%     16.66% # attempts to use FU when none available
system.cpu01.iq.fu_full::SimdMisc                   0      0.00%     16.66% # attempts to use FU when none available
system.cpu01.iq.fu_full::SimdMult                   0      0.00%     16.66% # attempts to use FU when none available
system.cpu01.iq.fu_full::SimdMultAcc                0      0.00%     16.66% # attempts to use FU when none available
system.cpu01.iq.fu_full::SimdShift                  0      0.00%     16.66% # attempts to use FU when none available
system.cpu01.iq.fu_full::SimdShiftAcc               0      0.00%     16.66% # attempts to use FU when none available
system.cpu01.iq.fu_full::SimdDiv                    0      0.00%     16.66% # attempts to use FU when none available
system.cpu01.iq.fu_full::SimdSqrt                   0      0.00%     16.66% # attempts to use FU when none available
system.cpu01.iq.fu_full::SimdFloatAdd         3911170      3.04%     19.70% # attempts to use FU when none available
system.cpu01.iq.fu_full::SimdFloatAlu               0      0.00%     19.70% # attempts to use FU when none available
system.cpu01.iq.fu_full::SimdFloatCmp               0      0.00%     19.70% # attempts to use FU when none available
system.cpu01.iq.fu_full::SimdFloatCvt         3693460      2.87%     22.57% # attempts to use FU when none available
system.cpu01.iq.fu_full::SimdFloatDiv               0      0.00%     22.57% # attempts to use FU when none available
system.cpu01.iq.fu_full::SimdFloatMisc              0      0.00%     22.57% # attempts to use FU when none available
system.cpu01.iq.fu_full::SimdFloatMult          70526      0.05%     22.63% # attempts to use FU when none available
system.cpu01.iq.fu_full::SimdFloatMultAcc            0      0.00%     22.63% # attempts to use FU when none available
system.cpu01.iq.fu_full::SimdFloatSqrt              0      0.00%     22.63% # attempts to use FU when none available
system.cpu01.iq.fu_full::SimdReduceAdd              0      0.00%     22.63% # attempts to use FU when none available
system.cpu01.iq.fu_full::SimdReduceAlu              0      0.00%     22.63% # attempts to use FU when none available
system.cpu01.iq.fu_full::SimdReduceCmp              0      0.00%     22.63% # attempts to use FU when none available
system.cpu01.iq.fu_full::SimdFloatReduceAdd            0      0.00%     22.63% # attempts to use FU when none available
system.cpu01.iq.fu_full::SimdFloatReduceCmp            0      0.00%     22.63% # attempts to use FU when none available
system.cpu01.iq.fu_full::SimdAes                    0      0.00%     22.63% # attempts to use FU when none available
system.cpu01.iq.fu_full::SimdAesMix                 0      0.00%     22.63% # attempts to use FU when none available
system.cpu01.iq.fu_full::SimdSha1Hash               0      0.00%     22.63% # attempts to use FU when none available
system.cpu01.iq.fu_full::SimdSha1Hash2              0      0.00%     22.63% # attempts to use FU when none available
system.cpu01.iq.fu_full::SimdSha256Hash             0      0.00%     22.63% # attempts to use FU when none available
system.cpu01.iq.fu_full::SimdSha256Hash2            0      0.00%     22.63% # attempts to use FU when none available
system.cpu01.iq.fu_full::SimdShaSigma2              0      0.00%     22.63% # attempts to use FU when none available
system.cpu01.iq.fu_full::SimdShaSigma3              0      0.00%     22.63% # attempts to use FU when none available
system.cpu01.iq.fu_full::SimdPredAlu                0      0.00%     22.63% # attempts to use FU when none available
system.cpu01.iq.fu_full::MemRead             12505485      9.73%     32.35% # attempts to use FU when none available
system.cpu01.iq.fu_full::MemWrite               54275      0.04%     32.40% # attempts to use FU when none available
system.cpu01.iq.fu_full::FloatMemRead        86926260     67.60%    100.00% # attempts to use FU when none available
[...]
system.ruby.network.int_links44.network_link.pwrStateResidencyTicks::UNDEFINED 197107194834                       # Cumulative time (in ticks) in various power states
system.ruby.network.int_links45.credit_link.pwrStateResidencyTicks::UNDEFINED 197107194834                       # Cumulative time (in ticks) in various power states
system.ruby.network.int_links45.network_link.pwrStateResidencyTicks::UNDEFINED 197107194834                       # Cumulative time (in ticks) in various power states
system.ruby.network.int_links46.credit_link.pwrStateResidencyTicks::UNDEFINED 197107194834                       # Cumulative time (in ticks) in various power states
system.ruby.network.int_links46.network_link.pwrStateResidencyTicks::UNDEFINED 197107194834                       # Cumulative time (in ticks) in various power states
system.ruby.network.int_links47.credit_link.pwrStateResidencyTicks::UNDEFINED 197107194834                       # Cumulative time (in ticks) in various power states
system.ruby.network.int_links47.network_link.pwrStateResidencyTicks::UNDEFINED 197107194834                       # Cumulative time (in ticks) in various power states
system.ruby.network.netifs00.pwrStateResidencyTicks::UNDEFINED 197107194834                       # Cumulative time (in ticks) in various power states
system.ruby.network.netifs01.pwrStateResidencyTicks::UNDEFINED 197107194834                       # Cumulative time (in ticks) in various power states
system.ruby.network.netifs02.pwrStateResidencyTicks::UNDEFINED 197107194834                       # Cumulative time (in ticks) in various power states
system.ruby.network.netifs03.pwrStateResidencyTicks::UNDEFINED 197107194834                       # Cumulative time (in ticks) in various power states
system.ruby.network.netifs04.pwrStateResidencyTicks::UNDEFINED 197107194834                       # Cumulative time (in ticks) in various power states
system.ruby.network.netifs05.pwrStateResidencyTicks::UNDEFINED 197107194834                       # Cumulative time (in ticks) in various power states
system.ruby.network.netifs06.pwrStateResidencyTicks::UNDEFINED 197107194834                       # Cumulative time (in ticks) in various power states
system.ruby.network.netifs07.pwrStateResidencyTicks::UNDEFINED 197107194834                       # Cumulative time (in ticks) in various power states
system.ruby.network.netifs08.pwrStateResidencyTicks::UNDEFINED 197107194834                       # Cumulative time (in ticks) in various power states
system.ruby.network.netifs09.pwrStateResidencyTicks::UNDEFINED 197107194834                       # Cumulative time (in ticks) in various power states
system.ruby.network.netifs10.pwrStateResidencyTicks::UNDEFINED 197107194834                       # Cumulative time (in ticks) in various power states
system.ruby.network.netifs11.pwrStateResidencyTicks::UNDEFINED 197107194834                       # Cumulative time (in ticks) in various power states
system.ruby.network.netifs12.pwrStateResidencyTicks::UNDEFINED 197107194834                       # Cumulative time (in ticks) in various power states
system.ruby.network.netifs13.pwrStateResidencyTicks::UNDEFINED 197107194834                       # Cumulative time (in ticks) in various power states
system.ruby.network.netifs14.pwrStateResidencyTicks::UNDEFINED 197107194834                       # Cumulative time (in ticks) in various power states
system.ruby.network.netifs15.pwrStateResidencyTicks::UNDEFINED 197107194834                       # Cumulative time (in ticks) in various power states
system.ruby.network.netifs16.pwrStateResidencyTicks::UNDEFINED 197107194834                       # Cumulative time (in ticks) in various power states
system.ruby.network.netifs17.pwrStateResidencyTicks::UNDEFINED 197107194834                       # Cumulative time (in ticks) in various power states
system.ruby.network.netifs18.pwrStateResidencyTicks::UNDEFINED 197107194834                       # Cumulative time (in ticks) in various power states
system.ruby.network.netifs19.pwrStateResidencyTicks::UNDEFINED 197107194834                       # Cumulative time (in ticks) in various power states
system.ruby.network.netifs20.pwrStateResidencyTicks::UNDEFINED 197107194834                       # Cumulative time (in ticks) in various power states
system.ruby.network.netifs21.pwrStateResidencyTicks::UNDEFINED 197107194834                       # Cumulative time (in ticks) in various power states
system.ruby.network.netifs22.pwrStateResidencyTicks::UNDEFINED 197107194834                       # Cumulative time (in ticks) in various power states
system.ruby.network.netifs23.pwrStateResidencyTicks::UNDEFINED 197107194834                       # Cumulative time (in ticks) in various power states
system.ruby.network.netifs24.pwrStateResidencyTicks::UNDEFINED 197107194834                       # Cumulative time (in ticks) in various power states
system.ruby.network.netifs25.pwrStateResidencyTicks::UNDEFINED 197107194834                       # Cumulative time (in ticks) in various power states
system.ruby.network.netifs26.pwrStateResidencyTicks::UNDEFINED 197107194834                       # Cumulative time (in ticks) in various power states
system.ruby.network.netifs27.pwrStateResidencyTicks::UNDEFINED 197107194834                       # Cumulative time (in ticks) in various power states
system.ruby.network.netifs28.pwrStateResidencyTicks::UNDEFINED 197107194834                       # Cumulative time (in ticks) in various power states
system.ruby.network.netifs29.pwrStateResidencyTicks::UNDEFINED 197107194834                       # Cumulative time (in ticks) in various power states
system.ruby.network.netifs30.pwrStateResidencyTicks::UNDEFINED 197107194834                       # Cumulative time (in ticks) in various power states
system.ruby.network.netifs31.pwrStateResidencyTicks::UNDEFINED 197107194834                       # Cumulative time (in ticks) in various power states
system.ruby.network.netifs32.pwrStateResidencyTicks::UNDEFINED 197107194834                       # Cumulative time (in ticks) in various power states
system.ruby.network.netifs33.pwrStateResidencyTicks::UNDEFINED 197107194834                       # Cumulative time (in ticks) in various power states
system.ruby.network.netifs34.pwrStateResidencyTicks::UNDEFINED 197107194834                       # Cumulative time (in ticks) in various power states
system.ruby.network.netifs35.pwrStateResidencyTicks::UNDEFINED 197107194834                       # Cumulative time (in ticks) in various power states
system.ruby.network.netifs36.pwrStateResidencyTicks::UNDEFINED 197107194834                       # Cumulative time (in ticks) in various power states
system.ruby.network.netifs37.pwrStateResidencyTicks::UNDEFINED 197107194834                       # Cumulative time (in ticks) in various power states
system.ruby.network.netifs38.pwrStateResidencyTicks::UNDEFINED 197107194834                       # Cumulative time (in ticks) in various power states
system.ruby.network.netifs39.pwrStateResidencyTicks::UNDEFINED 197107194834                       # Cumulative time (in ticks) in various power states
system.ruby.network.netifs40.pwrStateResidencyTicks::UNDEFINED 197107194834                       # Cumulative time (in ticks) in various power states
system.ruby.network.netifs41.pwrStateResidencyTicks::UNDEFINED 197107194834                       # Cumulative time (in ticks) in various power states
system.ruby.network.netifs42.pwrStateResidencyTicks::UNDEFINED 197107194834                       # Cumulative time (in ticks) in various power states
system.ruby.network.netifs43.pwrStateResidencyTicks::UNDEFINED 197107194834                       # Cumulative time (in ticks) in various power states
system.ruby.network.netifs44.pwrStateResidencyTicks::UNDEFINED 197107194834                       # Cumulative time (in ticks) in various power states
system.ruby.network.netifs45.pwrStateResidencyTicks::UNDEFINED 197107194834                       # Cumulative time (in ticks) in various power states
system.ruby.network.netifs46.pwrStateResidencyTicks::UNDEFINED 197107194834                       # Cumulative time (in ticks) in various power states
system.ruby.network.netifs47.pwrStateResidencyTicks::UNDEFINED 197107194834                       # Cumulative time (in ticks) in various power states
system.ruby.network.packet_network_latency |  1977300726                       |       15885                       |  4486403477                      
system.ruby.network.packet_queueing_latency |   358161268                       |        2488                       |  2686100068                      
system.ruby.network.packets_injected     |   239713718     33.63%     33.63% |        2488      0.00%     33.63% |   473093906     66.37%    100.00%
system.ruby.network.packets_injected::total    712810112                      
system.ruby.network.packets_received     |   239713718     33.63%     33.63% |        2488      0.00%     33.63% |   473093907     66.37%    100.00%
system.ruby.network.packets_received::total    712810113                      
system.ruby.network.pwrStateResidencyTicks::UNDEFINED 197107194834                       # Cumulative time (in ticks) in various power states
system.ruby.network.routers00.buffer_reads    379962667                      
system.ruby.network.routers00.buffer_writes    379962667                      
system.ruby.network.routers00.crossbar_activity    190288233                      
system.ruby.network.routers00.pwrStateResidencyTicks::UNDEFINED 197107194834                       # Cumulative time (in ticks) in various power states
system.ruby.network.routers00.sw_input_arbiter_activity    193952457                      
system.ruby.network.routers00.sw_output_arbiter_activity    190288233                      
system.ruby.network.routers01.buffer_reads    527716205                      
system.ruby.network.routers01.buffer_writes    527716205                      
system.ruby.network.routers01.crossbar_activity    264014170                      
system.ruby.network.routers01.pwrStateResidencyTicks::UNDEFINED 197107194834                       # Cumulative time (in ticks) in various power states
system.ruby.network.routers01.sw_input_arbiter_activity    273183875                      
system.ruby.network.routers01.sw_output_arbiter_activity    264014170                      
system.ruby.network.routers02.buffer_reads    524215316                      
system.ruby.network.routers02.buffer_writes    524215316                      
system.ruby.network.routers02.crossbar_activity    262211735                      
system.ruby.network.routers02.pwrStateResidencyTicks::UNDEFINED 197107194834                       # Cumulative time (in ticks) in various power states
system.ruby.network.routers02.sw_input_arbiter_activity    271183465                      
system.ruby.network.routers02.sw_output_arbiter_activity    262211735                      
system.ruby.network.routers03.buffer_reads    370938749                      
system.ruby.network.routers03.buffer_writes    370938749                      
system.ruby.network.routers03.crossbar_activity    185521474                      
system.ruby.network.routers03.pwrStateResidencyTicks::UNDEFINED 197107194834                       # Cumulative time (in ticks) in various power states
system.ruby.network.routers03.sw_input_arbiter_activity    188956876                      
system.ruby.network.routers03.sw_output_arbiter_activity    185521474                      
system.ruby.network.routers04.buffer_reads    521585047                      
system.ruby.network.routers04.buffer_writes    521585047                      
system.ruby.network.routers04.crossbar_activity    260924370                      
system.ruby.network.routers04.pwrStateResidencyTicks::UNDEFINED 197107194834                       # Cumulative time (in ticks) in various power states
system.ruby.network.routers04.sw_input_arbiter_activity    267936930                      
system.ruby.network.routers04.sw_output_arbiter_activity    260924370                      
system.ruby.network.routers05.buffer_reads    667510078                      
system.ruby.network.routers05.buffer_writes    667510078                      
system.ruby.network.routers05.crossbar_activity    333812755                      
system.ruby.network.routers05.pwrStateResidencyTicks::UNDEFINED 197107194834                       # Cumulative time (in ticks) in various power states
system.ruby.network.routers05.sw_input_arbiter_activity    345787255                      
system.ruby.network.routers05.sw_output_arbiter_activity    333812755                      
system.ruby.network.routers06.buffer_reads    670996509                      
system.ruby.network.routers06.buffer_writes    670996509                      
system.ruby.network.routers06.crossbar_activity    335547679                      
system.ruby.network.routers06.pwrStateResidencyTicks::UNDEFINED 197107194834                       # Cumulative time (in ticks) in various power states
system.ruby.network.routers06.sw_input_arbiter_activity    347683594                      
system.ruby.network.routers06.sw_output_arbiter_activity    335547679                      
system.ruby.network.routers07.buffer_reads    519136526                      
system.ruby.network.routers07.buffer_writes    519136526                      
system.ruby.network.routers07.crossbar_activity    259609420                      
system.ruby.network.routers07.pwrStateResidencyTicks::UNDEFINED 197107194834                       # Cumulative time (in ticks) in various power states
system.ruby.network.routers07.sw_input_arbiter_activity    266598667                      
system.ruby.network.routers07.sw_output_arbiter_activity    259609420                      
system.ruby.network.routers08.buffer_reads    519098385                      
system.ruby.network.routers08.buffer_writes    519098385                      
system.ruby.network.routers08.crossbar_activity    259637135                      
system.ruby.network.routers08.pwrStateResidencyTicks::UNDEFINED 197107194834                       # Cumulative time (in ticks) in various power states
system.ruby.network.routers08.sw_input_arbiter_activity    266593923                      
system.ruby.network.routers08.sw_output_arbiter_activity    259637135                      
system.ruby.network.routers09.buffer_reads    665705554                      
system.ruby.network.routers09.buffer_writes    665705554                      
system.ruby.network.routers09.crossbar_activity    332899616                      
system.ruby.network.routers09.pwrStateResidencyTicks::UNDEFINED 197107194834                       # Cumulative time (in ticks) in various power states
system.ruby.network.routers09.sw_input_arbiter_activity    344790298                      
system.ruby.network.routers09.sw_output_arbiter_activity    332899616                      
system.ruby.network.routers10.buffer_reads    666005891                      
system.ruby.network.routers10.buffer_writes    666005891                      
system.ruby.network.routers10.crossbar_activity    333041543                      
system.ruby.network.routers10.pwrStateResidencyTicks::UNDEFINED 197107194834                       # Cumulative time (in ticks) in various power states
system.ruby.network.routers10.sw_input_arbiter_activity    345012253                      
system.ruby.network.routers10.sw_output_arbiter_activity    333041543                      
system.ruby.network.routers11.buffer_reads    518085795                      
system.ruby.network.routers11.buffer_writes    518085795                      
system.ruby.network.routers11.crossbar_activity    259073251                      
system.ruby.network.routers11.pwrStateResidencyTicks::UNDEFINED 197107194834                       # Cumulative time (in ticks) in various power states
system.ruby.network.routers11.sw_input_arbiter_activity    265995707                      
system.ruby.network.routers11.sw_output_arbiter_activity    259073251                      
system.ruby.network.routers12.buffer_reads    370347460                      
system.ruby.network.routers12.buffer_writes    370347460                      
system.ruby.network.routers12.crossbar_activity    185217814                      
system.ruby.network.routers12.pwrStateResidencyTicks::UNDEFINED 197107194834                       # Cumulative time (in ticks) in various power states
system.ruby.network.routers12.sw_input_arbiter_activity    188698093                      
system.ruby.network.routers12.sw_output_arbiter_activity    185217814                      
system.ruby.network.routers13.buffer_reads    518288411                      
system.ruby.network.routers13.buffer_writes    518288411                      
system.ruby.network.routers13.crossbar_activity    259180147                      
system.ruby.network.routers13.pwrStateResidencyTicks::UNDEFINED 197107194834                       # Cumulative time (in ticks) in various power states
system.ruby.network.routers13.sw_input_arbiter_activity    268018877                      
system.ruby.network.routers13.sw_output_arbiter_activity    259180147                      
system.ruby.network.routers14.buffer_reads    518801025                      
system.ruby.network.routers14.buffer_writes    518801025                      
system.ruby.network.routers14.crossbar_activity    259428179                      
system.ruby.network.routers14.pwrStateResidencyTicks::UNDEFINED 197107194834                       # Cumulative time (in ticks) in various power states
system.ruby.network.routers14.sw_input_arbiter_activity    268312985                      
system.ruby.network.routers14.sw_output_arbiter_activity    259428179                      
system.ruby.network.routers15.buffer_reads    372604432                      
system.ruby.network.routers15.buffer_writes    372604432                      
system.ruby.network.routers15.crossbar_activity    186321602                      
system.ruby.network.routers15.pwrStateResidencyTicks::UNDEFINED 197107194834                       # Cumulative time (in ticks) in various power states
system.ruby.network.routers15.sw_input_arbiter_activity    189866613                      
system.ruby.network.routers15.sw_output_arbiter_activity    186321602                      
system.ruby.outstanding_req_hist_seqr::bucket_size            2                      
system.ruby.outstanding_req_hist_seqr::max_bucket           19                      
system.ruby.outstanding_req_hist_seqr::samples  11419169058                      
system.ruby.outstanding_req_hist_seqr::mean     1.646526                      
system.ruby.outstanding_req_hist_seqr::gmean     1.534712                      
system.ruby.outstanding_req_hist_seqr::stdev     0.615612                      
system.ruby.outstanding_req_hist_seqr    |  4775314140     41.82%     41.82% |  6547976386     57.34%     99.16% |    95147200      0.83%     99.99% |      731076      0.01%    100.00% |         230      0.00%    100.00% |          26      0.00%    100.00% |           0      0.00%    100.00% |           0      0.00%    100.00% |           0      0.00%    100.00% |           0      0.00%    100.00%
system.ruby.outstanding_req_hist_seqr::total  11419169058                      
system.ruby.pwrStateResidencyTicks::UNDEFINED 197107194834                       # Cumulative time (in ticks) in various power states
system.sys_port_proxy.pwrStateResidencyTicks::UNDEFINED 197107194834                       # Cumulative time (in ticks) in various power states
system.voltage_domain.voltage                       1                       # Voltage in Volts

---------- End Simulation Statistics   ----------
