
---------- Begin Simulation Statistics ----------
final_tick                               312977489886                       # Number of ticks from beginning of simulation (restored from checkpoints and never reset)
host_inst_rate                                  76732                       # Simulator instruction rate (inst/s)
host_mem_usage                                1750372                       # Number of bytes of host memory used
host_op_rate                                   136945                       # Simulator op (including micro ops) rate (op/s)
host_seconds                                122889.09                       # Real time elapsed on the host
host_tick_rate                                1649432                       # Simulator tick rate (ticks/s)
sim_freq                                 1000000000000                       # Frequency of simulated ticks
sim_insts                                  9429533119                       # Number of instructions simulated
sim_ops                                   16829052696                       # Number of ops (including micro ops) simulated
sim_seconds                                  0.202697                       # Number of seconds simulated
sim_ticks                                202697158275                       # Number of ticks simulated
system.clk_domain.clock                          1000                       # Clock period in ticks
system.cpu00.apic_clk_domain.clock               5328                       # Clock period in ticks
system.cpu00.branchPred.BTBCorrect                  0                       # Number of correct BTB predictions (this stat may not work properly.
system.cpu00.branchPred.BTBHitPct            0.000000                       # BTB Hit Percentage
system.cpu00.branchPred.BTBHits                     0                       # Number of BTB hits
system.cpu00.branchPred.BTBLookups          237700155                       # Number of BTB lookups
system.cpu00.branchPred.RASInCorrect               46                       # Number of incorrect RAS predictions.
system.cpu00.branchPred.condIncorrect        20033289                       # Number of conditional branches incorrect
system.cpu00.branchPred.condPredicted       306610636                       # Number of conditional branches predicted
system.cpu00.branchPred.indirectHits         94147888                       # Number of indirect target hits.
system.cpu00.branchPred.indirectLookups     237700155                       # Number of indirect predictor lookups.
system.cpu00.branchPred.indirectMisses      143552267                       # Number of indirect misses.
system.cpu00.branchPred.lookups             306610636                       # Number of BP lookups
system.cpu00.branchPred.usedRAS                241346                       # Number of times the RAS was used to get a target.
system.cpu00.branchPredindirectMispredicted      5106660                       # Number of mispredicted indirect branches.
system.cpu00.cc_regfile_reads               956692868                       # number of cc regfile reads
system.cpu00.cc_regfile_writes              683244912                       # number of cc regfile writes
system.cpu00.commit.amos                            0                       # Number of atomic instructions committed
system.cpu00.commit.branchMispredicts        20033289                       # The number of times a branch was mispredicted
system.cpu00.commit.branches                144898045                       # Number of branches committed
system.cpu00.commit.bw_lim_events            44958369                       # number cycles where commit BW limit reached
system.cpu00.commit.commitNonSpecStalls           466                       # The number of times commit has been forced to stall to communicate backwards
system.cpu00.commit.commitSquashedInsts     804900722                       # The number of squashed insts skipped by commit
system.cpu00.commit.committedInsts          559290914                       # Number of instructions committed
system.cpu00.commit.committedOps            996203767                       # Number of ops (including micro ops) committed
system.cpu00.commit.committed_per_cycle::samples    495277524                       # Number of insts commited each cycle
system.cpu00.commit.committed_per_cycle::mean     2.011405                       # Number of insts commited each cycle
system.cpu00.commit.committed_per_cycle::stdev     2.483326                       # Number of insts commited each cycle
system.cpu00.commit.committed_per_cycle::underflows            0      0.00%      0.00% # Number of insts commited each cycle
system.cpu00.commit.committed_per_cycle::0    199937140     40.37%     40.37% # Number of insts commited each cycle
system.cpu00.commit.committed_per_cycle::1     94385107     19.06%     59.43% # Number of insts commited each cycle
system.cpu00.commit.committed_per_cycle::2     30816972      6.22%     65.65% # Number of insts commited each cycle
system.cpu00.commit.committed_per_cycle::3     54142516     10.93%     76.58% # Number of insts commited each cycle
system.cpu00.commit.committed_per_cycle::4     50779264     10.25%     86.83% # Number of insts commited each cycle
system.cpu00.commit.committed_per_cycle::5      9775606      1.97%     88.81% # Number of insts commited each cycle
system.cpu00.commit.committed_per_cycle::6      7282720      1.47%     90.28% # Number of insts commited each cycle
system.cpu00.commit.committed_per_cycle::7      3199830      0.65%     90.92% # Number of insts commited each cycle
system.cpu00.commit.committed_per_cycle::8     44958369      9.08%    100.00% # Number of insts commited each cycle
system.cpu00.commit.committed_per_cycle::overflows            0      0.00%    100.00% # Number of insts commited each cycle
system.cpu00.commit.committed_per_cycle::min_value            0                       # Number of insts commited each cycle
system.cpu00.commit.committed_per_cycle::max_value            8                       # Number of insts commited each cycle
system.cpu00.commit.committed_per_cycle::total    495277524                       # Number of insts commited each cycle
system.cpu00.commit.fp_insts                     2091                       # Number of committed floating point instructions.
system.cpu00.commit.function_calls                208                       # Number of function calls committed.
system.cpu00.commit.int_insts               988626656                       # Number of committed integer instructions.
system.cpu00.commit.loads                    86262685                       # Number of loads committed
system.cpu00.commit.membars                       278                       # Number of memory barriers committed
system.cpu00.commit.op_class_0::No_OpClass      7575515      0.76%      0.76% # Class of committed instruction
system.cpu00.commit.op_class_0::IntAlu      879973644     88.33%     89.09% # Class of committed instruction
system.cpu00.commit.op_class_0::IntMult      20215938      2.03%     91.12% # Class of committed instruction
system.cpu00.commit.op_class_0::IntDiv              7      0.00%     91.12% # Class of committed instruction
system.cpu00.commit.op_class_0::FloatAdd           31      0.00%     91.12% # Class of committed instruction
system.cpu00.commit.op_class_0::FloatCmp            0      0.00%     91.12% # Class of committed instruction
system.cpu00.commit.op_class_0::FloatCvt            0      0.00%     91.12% # Class of committed instruction
system.cpu00.commit.op_class_0::FloatMult            0      0.00%     91.12% # Class of committed instruction
system.cpu00.commit.op_class_0::FloatMultAcc            0      0.00%     91.12% # Class of committed instruction
system.cpu00.commit.op_class_0::FloatDiv            0      0.00%     91.12% # Class of committed instruction
system.cpu00.commit.op_class_0::FloatMisc            0      0.00%     91.12% # Class of committed instruction
system.cpu00.commit.op_class_0::FloatSqrt            0      0.00%     91.12% # Class of committed instruction
system.cpu00.commit.op_class_0::SimdAdd           132      0.00%     91.12% # Class of committed instruction
system.cpu00.commit.op_class_0::SimdAddAcc            0      0.00%     91.12% # Class of committed instruction
system.cpu00.commit.op_class_0::SimdAlu             4      0.00%     91.12% # Class of committed instruction
system.cpu00.commit.op_class_0::SimdCmp             0      0.00%     91.12% # Class of committed instruction
system.cpu00.commit.op_class_0::SimdCvt             0      0.00%     91.12% # Class of committed instruction
system.cpu00.commit.op_class_0::SimdMisc          212      0.00%     91.12% # Class of committed instruction
system.cpu00.commit.op_class_0::SimdMult            0      0.00%     91.12% # Class of committed instruction
system.cpu00.commit.op_class_0::SimdMultAcc            0      0.00%     91.12% # Class of committed instruction
system.cpu00.commit.op_class_0::SimdShift            6      0.00%     91.12% # Class of committed instruction
system.cpu00.commit.op_class_0::SimdShiftAcc            0      0.00%     91.12% # Class of committed instruction
system.cpu00.commit.op_class_0::SimdDiv             0      0.00%     91.12% # Class of committed instruction
system.cpu00.commit.op_class_0::SimdSqrt            0      0.00%     91.12% # Class of committed instruction
system.cpu00.commit.op_class_0::SimdFloatAdd            0      0.00%     91.12% # Class of committed instruction
system.cpu00.commit.op_class_0::SimdFloatAlu            0      0.00%     91.12% # Class of committed instruction
system.cpu00.commit.op_class_0::SimdFloatCmp            0      0.00%     91.12% # Class of committed instruction
system.cpu00.commit.op_class_0::SimdFloatCvt            0      0.00%     91.12% # Class of committed instruction
system.cpu00.commit.op_class_0::SimdFloatDiv            0      0.00%     91.12% # Class of committed instruction
system.cpu00.commit.op_class_0::SimdFloatMisc            0      0.00%     91.12% # Class of committed instruction
system.cpu00.commit.op_class_0::SimdFloatMult            0      0.00%     91.12% # Class of committed instruction
system.cpu00.commit.op_class_0::SimdFloatMultAcc            0      0.00%     91.12% # Class of committed instruction
system.cpu00.commit.op_class_0::SimdFloatSqrt            0      0.00%     91.12% # Class of committed instruction
system.cpu00.commit.op_class_0::SimdReduceAdd            0      0.00%     91.12% # Class of committed instruction
system.cpu00.commit.op_class_0::SimdReduceAlu            0      0.00%     91.12% # Class of committed instruction
system.cpu00.commit.op_class_0::SimdReduceCmp            0      0.00%     91.12% # Class of committed instruction
system.cpu00.commit.op_class_0::SimdFloatReduceAdd            0      0.00%     91.12% # Class of committed instruction
system.cpu00.commit.op_class_0::SimdFloatReduceCmp            0      0.00%     91.12% # Class of committed instruction
system.cpu00.commit.op_class_0::SimdAes             0      0.00%     91.12% # Class of committed instruction
system.cpu00.commit.op_class_0::SimdAesMix            0      0.00%     91.12% # Class of committed instruction
system.cpu00.commit.op_class_0::SimdSha1Hash            0      0.00%     91.12% # Class of committed instruction
system.cpu00.commit.op_class_0::SimdSha1Hash2            0      0.00%     91.12% # Class of committed instruction
system.cpu00.commit.op_class_0::SimdSha256Hash            0      0.00%     91.12% # Class of committed instruction
system.cpu00.commit.op_class_0::SimdSha256Hash2            0      0.00%     91.12% # Class of committed instruction
system.cpu00.commit.op_class_0::SimdShaSigma2            0      0.00%     91.12% # Class of committed instruction
system.cpu00.commit.op_class_0::SimdShaSigma3            0      0.00%     91.12% # Class of committed instruction
system.cpu00.commit.op_class_0::SimdPredAlu            0      0.00%     91.12% # Class of committed instruction
system.cpu00.commit.op_class_0::MemRead      86262325      8.66%     99.78% # Class of committed instruction
system.cpu00.commit.op_class_0::MemWrite      2174281      0.22%    100.00% # Class of committed instruction
system.cpu00.commit.op_class_0::FloatMemRead          360      0.00%    100.00% # Class of committed instruction
system.cpu00.commit.op_class_0::FloatMemWrite         1312      0.00%    100.00% # Class of committed instruction
system.cpu00.commit.op_class_0::IprAccess            0      0.00%    100.00% # Class of committed instruction
system.cpu00.commit.op_class_0::InstPrefetch            0      0.00%    100.00% # Class of committed instruction
system.cpu00.commit.op_class_0::total       996203767                       # Class of committed instruction
system.cpu00.commit.refs                     88438278                       # Number of memory references committed
system.cpu00.commit.swp_count                       0                       # Number of s/w prefetches committed
system.cpu00.commit.vec_insts                       0                       # Number of committed Vector instructions.
system.cpu00.committedInsts                 559290914                       # Number of Instructions Simulated
system.cpu00.committedOps                   996203767                       # Number of Ops (including micro ops) Simulated
system.cpu00.cpi                             1.088343                       # CPI: Cycles Per Instruction
system.cpu00.cpi_total                       1.088343                       # CPI: Total CPI of All Threads
system.cpu00.decode.BlockedCycles           116055782                       # Number of cycles decode is blocked
system.cpu00.decode.DecodedInsts           2085794913                       # Number of instructions handled by decode
system.cpu00.decode.IdleCycles              155766236                       # Number of cycles decode is idle
system.cpu00.decode.RunCycles               298754661                       # Number of cycles decode is running
system.cpu00.decode.SquashCycles             20033754                       # Number of cycles decode is squashing
system.cpu00.decode.UnblockCycles            18060275                       # Number of cycles decode is unblocking
system.cpu00.dtb.rdAccesses                 133469781                       # TLB accesses on read requests
system.cpu00.dtb.rdMisses                         305                       # TLB misses on read requests
system.cpu00.dtb.walker.pwrStateResidencyTicks::UNDEFINED 312977489886                       # Cumulative time (in ticks) in various power states
system.cpu00.dtb.wrAccesses                   3499557                       # TLB accesses on write requests
system.cpu00.dtb.wrMisses                          51                       # TLB misses on write requests
system.cpu00.fetch.Branches                 306610636                       # Number of branches that fetch encountered
system.cpu00.fetch.CacheLines               190073862                       # Number of cache lines fetched
system.cpu00.fetch.Cycles                   387944781                       # Number of cycles fetch has run and was not squashing or blocked
system.cpu00.fetch.IcacheSquashes             7103175                       # Number of outstanding Icache misses that were squashed
system.cpu00.fetch.IcacheWaitRetryStallCycles         1967                       # Number of stall cycles due to full MSHR
system.cpu00.fetch.Insts                   1215511004                       # Number of instructions fetch has processed
system.cpu00.fetch.MiscStallCycles               2455                       # Number of cycles fetch has spent waiting on interrupts, or bad addresses, or out of MSHRs
system.cpu00.fetch.SquashCycles              40067508                       # Number of cycles fetch has spent squashing
system.cpu00.fetch.branchRate                0.503714                       # Number of branch fetches per cycle
system.cpu00.fetch.icacheStallCycles        200687751                       # Number of cycles fetch is stalled on an Icache miss
system.cpu00.fetch.predictedBranches         94389234                       # Number of branches that fetch has predicted taken
system.cpu00.fetch.rate                      1.996896                       # Number of inst fetches per cycle
system.cpu00.fetch.rateDist::samples        608670708                       # Number of instructions fetched each cycle (Total)
system.cpu00.fetch.rateDist::mean            3.601339                       # Number of instructions fetched each cycle (Total)
system.cpu00.fetch.rateDist::stdev           3.500950                       # Number of instructions fetched each cycle (Total)
system.cpu00.fetch.rateDist::underflows             0      0.00%      0.00% # Number of instructions fetched each cycle (Total)
system.cpu00.fetch.rateDist::0              254413050     41.80%     41.80% # Number of instructions fetched each cycle (Total)
system.cpu00.fetch.rateDist::1                5449292      0.90%     42.69% # Number of instructions fetched each cycle (Total)
system.cpu00.fetch.rateDist::2               32796440      5.39%     48.08% # Number of instructions fetched each cycle (Total)
system.cpu00.fetch.rateDist::3               31229935      5.13%     53.21% # Number of instructions fetched each cycle (Total)
system.cpu00.fetch.rateDist::4               24917952      4.09%     57.31% # Number of instructions fetched each cycle (Total)
system.cpu00.fetch.rateDist::5               16230200      2.67%     59.97% # Number of instructions fetched each cycle (Total)
system.cpu00.fetch.rateDist::6               39367272      6.47%     66.44% # Number of instructions fetched each cycle (Total)
system.cpu00.fetch.rateDist::7               23861399      3.92%     70.36% # Number of instructions fetched each cycle (Total)
system.cpu00.fetch.rateDist::8              180405168     29.64%    100.00% # Number of instructions fetched each cycle (Total)
system.cpu00.fetch.rateDist::overflows              0      0.00%    100.00% # Number of instructions fetched each cycle (Total)
system.cpu00.fetch.rateDist::min_value              0                       # Number of instructions fetched each cycle (Total)
system.cpu00.fetch.rateDist::max_value              8                       # Number of instructions fetched each cycle (Total)
system.cpu00.fetch.rateDist::total          608670708                       # Number of instructions fetched each cycle (Total)
system.cpu00.fp_regfile_reads                    3079                       # number of floating regfile reads
system.cpu00.fp_regfile_writes                 140526                       # number of floating regfile writes
system.cpu00.idleCycles                         29467                       # Total number of cycles that the CPU has spent unscheduled due to idling
system.cpu00.iew.branchMispredicts           23029775                       # Number of branch mispredicts detected at execute
system.cpu00.iew.exec_branches              203236710                       # Number of branches executed
system.cpu00.iew.exec_nop                           0                       # number of nop insts executed
system.cpu00.iew.exec_rate                   2.601267                       # Inst execution rate
system.cpu00.iew.exec_refs                  166984136                       # number of memory reference insts executed
system.cpu00.iew.exec_stores                  3499557                       # Number of stores executed
system.cpu00.iew.exec_swp                           0                       # number of swp insts executed
system.cpu00.iew.iewBlockCycles              95555947                       # Number of cycles IEW is blocking
system.cpu00.iew.iewDispLoadInsts           158236803                       # Number of dispatched load instructions
system.cpu00.iew.iewDispNonSpecInsts             2770                       # Number of dispatched non-speculative instructions
system.cpu00.iew.iewDispSquashedInsts          657823                       # Number of squashed instructions skipped by dispatch
system.cpu00.iew.iewDispStoreInsts           13155634                       # Number of dispatched store instructions
system.cpu00.iew.iewDispatchedInsts        1801110451                       # Number of instructions dispatched to IQ
system.cpu00.iew.iewExecLoadInsts           163484579                       # Number of load instructions executed
system.cpu00.iew.iewExecSquashedInsts        49122965                       # Number of squashed instructions skipped in execute
system.cpu00.iew.iewExecutedInsts          1583391817                       # Number of executed instructions
system.cpu00.iew.iewIQFullEvents                51722                       # Number of times the IQ has become full, causing a stall
system.cpu00.iew.iewIdleCycles                      0                       # Number of cycles IEW is idle
system.cpu00.iew.iewLSQFullEvents               11828                       # Number of times the LSQ has become full, causing a stall
system.cpu00.iew.iewSquashCycles             20033754                       # Number of cycles IEW is squashing
system.cpu00.iew.iewUnblockCycles               74677                       # Number of cycles IEW is unblocking
system.cpu00.iew.lsq.thread0.blockedLoads            0                       # Number of blocked loads due to partial load-store forwarding
system.cpu00.iew.lsq.thread0.cacheBlocked     29386162                       # Number of times an access to memory failed due to the cache being blocked
system.cpu00.iew.lsq.thread0.forwLoads        1835146                       # Number of loads that had data forwarded from stores
system.cpu00.iew.lsq.thread0.ignoredResponses         2463                       # Number of memory responses ignored because the instruction is squashed
system.cpu00.iew.lsq.thread0.invAddrLoads            0                       # Number of loads ignored due to an invalid address
system.cpu00.iew.lsq.thread0.invAddrSwpfs            0                       # Number of software prefetches ignored due to an invalid address
system.cpu00.iew.lsq.thread0.memOrderViolation          364                       # Number of memory ordering violations
system.cpu00.iew.lsq.thread0.rescheduledLoads            2                       # Number of loads that were rescheduled
system.cpu00.iew.lsq.thread0.squashedLoads     71974122                       # Number of loads squashed
system.cpu00.iew.lsq.thread0.squashedStores     10980043                       # Number of stores squashed
system.cpu00.iew.memOrderViolationEvents          364                       # Number of memory order violations
system.cpu00.iew.predictedNotTakenIncorrect     14191220                       # Number of branches that were predicted not taken incorrectly
system.cpu00.iew.predictedTakenIncorrect      8838555                       # Number of branches that were predicted taken incorrectly
system.cpu00.iew.wb_consumers              1717732013                       # num instructions consuming a value
system.cpu00.iew.wb_count                  1536714785                       # cumulative count of insts written-back
system.cpu00.iew.wb_fanout                   0.667067                       # average fanout of values written-back
system.cpu00.iew.wb_producers              1145841925                       # num instructions producing a value
system.cpu00.iew.wb_rate                     2.524584                       # insts written-back per cycle
system.cpu00.iew.wb_sent                   1542783613                       # cumulative count of insts sent to commit
system.cpu00.int_regfile_reads             2095331509                       # number of integer regfile reads
system.cpu00.int_regfile_writes            1344744530                       # number of integer regfile writes
system.cpu00.interrupts.pwrStateResidencyTicks::UNDEFINED 312977489886                       # Cumulative time (in ticks) in various power states
system.cpu00.ipc                             0.918828                       # IPC: Instructions Per Cycle
system.cpu00.ipc_total                       0.918828                       # IPC: Total IPC of All Threads
system.cpu00.iq.FU_type_0::No_OpClass        19170172      1.17%      1.17% # Type of FU issued
system.cpu00.iq.FU_type_0::IntAlu          1406504911     86.16%     87.33% # Type of FU issued
system.cpu00.iq.FU_type_0::IntMult           27187407      1.67%     89.00% # Type of FU issued
system.cpu00.iq.FU_type_0::IntDiv                   7      0.00%     89.00% # Type of FU issued
system.cpu00.iq.FU_type_0::FloatAdd            741768      0.05%     89.04% # Type of FU issued
system.cpu00.iq.FU_type_0::FloatCmp                 0      0.00%     89.04% # Type of FU issued
system.cpu00.iq.FU_type_0::FloatCvt                 0      0.00%     89.04% # Type of FU issued
system.cpu00.iq.FU_type_0::FloatMult                0      0.00%     89.04% # Type of FU issued
system.cpu00.iq.FU_type_0::FloatMultAcc             0      0.00%     89.04% # Type of FU issued
system.cpu00.iq.FU_type_0::FloatDiv                 0      0.00%     89.04% # Type of FU issued
system.cpu00.iq.FU_type_0::FloatMisc                0      0.00%     89.04% # Type of FU issued
system.cpu00.iq.FU_type_0::FloatSqrt                0      0.00%     89.04% # Type of FU issued
system.cpu00.iq.FU_type_0::SimdAdd                135      0.00%     89.04% # Type of FU issued
system.cpu00.iq.FU_type_0::SimdAddAcc               0      0.00%     89.04% # Type of FU issued
system.cpu00.iq.FU_type_0::SimdAlu                 13      0.00%     89.04% # Type of FU issued
system.cpu00.iq.FU_type_0::SimdCmp                  0      0.00%     89.04% # Type of FU issued
system.cpu00.iq.FU_type_0::SimdCvt                  0      0.00%     89.04% # Type of FU issued
system.cpu00.iq.FU_type_0::SimdMisc               215      0.00%     89.04% # Type of FU issued
system.cpu00.iq.FU_type_0::SimdMult                 0      0.00%     89.04% # Type of FU issued
system.cpu00.iq.FU_type_0::SimdMultAcc              0      0.00%     89.04% # Type of FU issued
system.cpu00.iq.FU_type_0::SimdShift                9      0.00%     89.04% # Type of FU issued
system.cpu00.iq.FU_type_0::SimdShiftAcc             0      0.00%     89.04% # Type of FU issued
system.cpu00.iq.FU_type_0::SimdDiv                  0      0.00%     89.04% # Type of FU issued
system.cpu00.iq.FU_type_0::SimdSqrt                 0      0.00%     89.04% # Type of FU issued
system.cpu00.iq.FU_type_0::SimdFloatAdd             0      0.00%     89.04% # Type of FU issued
system.cpu00.iq.FU_type_0::SimdFloatAlu             0      0.00%     89.04% # Type of FU issued
system.cpu00.iq.FU_type_0::SimdFloatCmp             0      0.00%     89.04% # Type of FU issued
system.cpu00.iq.FU_type_0::SimdFloatCvt             0      0.00%     89.04% # Type of FU issued
system.cpu00.iq.FU_type_0::SimdFloatDiv             0      0.00%     89.04% # Type of FU issued
system.cpu00.iq.FU_type_0::SimdFloatMisc            0      0.00%     89.04% # Type of FU issued
system.cpu00.iq.FU_type_0::SimdFloatMult            0      0.00%     89.04% # Type of FU issued
system.cpu00.iq.FU_type_0::SimdFloatMultAcc            0      0.00%     89.04% # Type of FU issued
system.cpu00.iq.FU_type_0::SimdFloatSqrt            0      0.00%     89.04% # Type of FU issued
system.cpu00.iq.FU_type_0::SimdReduceAdd            0      0.00%     89.04% # Type of FU issued
system.cpu00.iq.FU_type_0::SimdReduceAlu            0      0.00%     89.04% # Type of FU issued
system.cpu00.iq.FU_type_0::SimdReduceCmp            0      0.00%     89.04% # Type of FU issued
system.cpu00.iq.FU_type_0::SimdFloatReduceAdd            0      0.00%     89.04% # Type of FU issued
system.cpu00.iq.FU_type_0::SimdFloatReduceCmp            0      0.00%     89.04% # Type of FU issued
system.cpu00.iq.FU_type_0::SimdAes                  0      0.00%     89.04% # Type of FU issued
system.cpu00.iq.FU_type_0::SimdAesMix               0      0.00%     89.04% # Type of FU issued
system.cpu00.iq.FU_type_0::SimdSha1Hash             0      0.00%     89.04% # Type of FU issued
system.cpu00.iq.FU_type_0::SimdSha1Hash2            0      0.00%     89.04% # Type of FU issued
system.cpu00.iq.FU_type_0::SimdSha256Hash            0      0.00%     89.04% # Type of FU issued
system.cpu00.iq.FU_type_0::SimdSha256Hash2            0      0.00%     89.04% # Type of FU issued
system.cpu00.iq.FU_type_0::SimdShaSigma2            0      0.00%     89.04% # Type of FU issued
system.cpu00.iq.FU_type_0::SimdShaSigma3            0      0.00%     89.04% # Type of FU issued
system.cpu00.iq.FU_type_0::SimdPredAlu              0      0.00%     89.04% # Type of FU issued
system.cpu00.iq.FU_type_0::MemRead          173156020     10.61%     99.65% # Type of FU issued
system.cpu00.iq.FU_type_0::MemWrite           5612850      0.34%     99.99% # Type of FU issued
system.cpu00.iq.FU_type_0::FloatMemRead        139940      0.01%    100.00% # Type of FU issued
system.cpu00.iq.FU_type_0::FloatMemWrite         1337      0.00%    100.00% # Type of FU issued
system.cpu00.iq.FU_type_0::IprAccess                0      0.00%    100.00% # Type of FU issued
system.cpu00.iq.FU_type_0::InstPrefetch             0      0.00%    100.00% # Type of FU issued
system.cpu00.iq.FU_type_0::total           1632514784                       # Type of FU issued
system.cpu00.iq.fp_alu_accesses                883842                       # Number of floating point alu accesses
system.cpu00.iq.fp_inst_queue_reads           1767811                       # Number of floating instruction queue reads
system.cpu00.iq.fp_inst_queue_wakeup_accesses       141854                       # Number of floating instruction queue wakeup accesses
system.cpu00.iq.fp_inst_queue_writes          2971003                       # Number of floating instruction queue writes
system.cpu00.iq.fu_busy_cnt                  53698188                       # FU busy when requested
system.cpu00.iq.fu_busy_rate                 0.032893                       # FU busy rate (busy events/executed inst)
system.cpu00.iq.fu_full::No_OpClass                 0      0.00%      0.00% # attempts to use FU when none available
system.cpu00.iq.fu_full::IntAlu              53571720     99.76%     99.76% # attempts to use FU when none available
system.cpu00.iq.fu_full::IntMult                    0      0.00%     99.76% # attempts to use FU when none available
system.cpu00.iq.fu_full::IntDiv                     0      0.00%     99.76% # attempts to use FU when none available
system.cpu00.iq.fu_full::FloatAdd                   0      0.00%     99.76% # attempts to use FU when none available
system.cpu00.iq.fu_full::FloatCmp                   0      0.00%     99.76% # attempts to use FU when none available
system.cpu00.iq.fu_full::FloatCvt                   0      0.00%     99.76% # attempts to use FU when none available
system.cpu00.iq.fu_full::FloatMult                  0      0.00%     99.76% # attempts to use FU when none available
system.cpu00.iq.fu_full::FloatMultAcc               0      0.00%     99.76% # attempts to use FU when none available
system.cpu00.iq.fu_full::FloatDiv                   0      0.00%     99.76% # attempts to use FU when none available
system.cpu00.iq.fu_full::FloatMisc                  0      0.00%     99.76% # attempts to use FU when none available
system.cpu00.iq.fu_full::FloatSqrt                  0      0.00%     99.76% # attempts to use FU when none available
system.cpu00.iq.fu_full::SimdAdd                    0      0.00%     99.76% # attempts to use FU when none available
system.cpu00.iq.fu_full::SimdAddAcc                 0      0.00%     99.76% # attempts to use FU when none available
system.cpu00.iq.fu_full::SimdAlu                    0      0.00%     99.76% # attempts to use FU when none available
system.cpu00.iq.fu_full::SimdCmp                    0      0.00%     99.76% # attempts to use FU when none available
system.cpu00.iq.fu_full::SimdCvt                    0      0.00%     99.76% # attempts to use FU when none available
system.cpu00.iq.fu_full::SimdMisc                   0      0.00%     99.76% # attempts to use FU when none available
system.cpu00.iq.fu_full::SimdMult                   0      0.00%     99.76% # attempts to use FU when none available
system.cpu00.iq.fu_full::SimdMultAcc                0      0.00%     99.76% # attempts to use FU when none available
system.cpu00.iq.fu_full::SimdShift                  0      0.00%     99.76% # attempts to use FU when none available
system.cpu00.iq.fu_full::SimdShiftAcc               0      0.00%     99.76% # attempts to use FU when none available
system.cpu00.iq.fu_full::SimdDiv                    0      0.00%     99.76% # attempts to use FU when none available
system.cpu00.iq.fu_full::SimdSqrt                   0      0.00%     99.76% # attempts to use FU when none available
system.cpu00.iq.fu_full::SimdFloatAdd               0      0.00%     99.76% # attempts to use FU when none available
system.cpu00.iq.fu_full::SimdFloatAlu               0      0.00%     99.76% # attempts to use FU when none available
system.cpu00.iq.fu_full::SimdFloatCmp               0      0.00%     99.76% # attempts to use FU when none available
system.cpu00.iq.fu_full::SimdFloatCvt               0      0.00%     99.76% # attempts to use FU when none available
system.cpu00.iq.fu_full::SimdFloatDiv               0      0.00%     99.76% # attempts to use FU when none available
system.cpu00.iq.fu_full::SimdFloatMisc              0      0.00%     99.76% # attempts to use FU when none available
system.cpu00.iq.fu_full::SimdFloatMult              0      0.00%     99.76% # attempts to use FU when none available
system.cpu00.iq.fu_full::SimdFloatMultAcc            0      0.00%     99.76% # attempts to use FU when none available
system.cpu00.iq.fu_full::SimdFloatSqrt              0      0.00%     99.76% # attempts to use FU when none available
system.cpu00.iq.fu_full::SimdReduceAdd              0      0.00%     99.76% # attempts to use FU when none available
system.cpu00.iq.fu_full::SimdReduceAlu              0      0.00%     99.76% # attempts to use FU when none available
system.cpu00.iq.fu_full::SimdReduceCmp              0      0.00%     99.76% # attempts to use FU when none available
system.cpu00.iq.fu_full::SimdFloatReduceAdd            0      0.00%     99.76% # attempts to use FU when none available
system.cpu00.iq.fu_full::SimdFloatReduceCmp            0      0.00%     99.76% # attempts to use FU when none available
system.cpu00.iq.fu_full::SimdAes                    0      0.00%     99.76% # attempts to use FU when none available
system.cpu00.iq.fu_full::SimdAesMix                 0      0.00%     99.76% # attempts to use FU when none available
system.cpu00.iq.fu_full::SimdSha1Hash               0      0.00%     99.76% # attempts to use FU when none available
system.cpu00.iq.fu_full::SimdSha1Hash2              0      0.00%     99.76% # attempts to use FU when none available
system.cpu00.iq.fu_full::SimdSha256Hash             0      0.00%     99.76% # attempts to use FU when none available
system.cpu00.iq.fu_full::SimdSha256Hash2            0      0.00%     99.76% # attempts to use FU when none available
system.cpu00.iq.fu_full::SimdShaSigma2              0      0.00%     99.76% # attempts to use FU when none available
system.cpu00.iq.fu_full::SimdShaSigma3              0      0.00%     99.76% # attempts to use FU when none available
system.cpu00.iq.fu_full::SimdPredAlu                0      0.00%     99.76% # attempts to use FU when none available
system.cpu00.iq.fu_full::MemRead               124841      0.23%    100.00% # attempts to use FU when none available
system.cpu00.iq.fu_full::MemWrite                1241      0.00%    100.00% # attempts to use FU when none available
system.cpu00.iq.fu_full::FloatMemRead             265      0.00%    100.00% # attempts to use FU when none available
system.cpu00.iq.fu_full::FloatMemWrite            121      0.00%    100.00% # attempts to use FU when none available
system.cpu00.iq.fu_full::IprAccess                  0      0.00%    100.00% # attempts to use FU when none available
system.cpu00.iq.fu_full::InstPrefetch               0      0.00%    100.00% # attempts to use FU when none available
system.cpu00.iq.int_alu_accesses           1666158958                       # Number of integer alu accesses
system.cpu00.iq.int_inst_queue_reads       3935238320                       # Number of integer instruction queue reads
system.cpu00.iq.int_inst_queue_wakeup_accesses   1536572931                       # Number of integer instruction queue wakeup accesses
system.cpu00.iq.int_inst_queue_writes      2603046488                       # Number of integer instruction queue writes
system.cpu00.iq.iqInstsAdded               1801102905                       # Number of instructions added to the IQ (excludes non-spec)
system.cpu00.iq.iqInstsIssued              1632514784                       # Number of instructions issued
system.cpu00.iq.iqNonSpecInstsAdded              7546                       # Number of non-speculative instructions added to the IQ
system.cpu00.iq.iqSquashedInstsExamined     804906684                       # Number of squashed instructions iterated over during squash; mainly for profiling
system.cpu00.iq.iqSquashedInstsIssued         9607669                       # Number of squashed instructions issued
system.cpu00.iq.iqSquashedNonSpecRemoved         7080                       # Number of squashed non-spec instructions that were removed
system.cpu00.iq.iqSquashedOperandsExamined    829048243                       # Number of squashed operands that are examined and possibly removed from graph
system.cpu00.iq.issued_per_cycle::samples    608670708                       # Number of insts issued each cycle
system.cpu00.iq.issued_per_cycle::mean       2.682098                       # Number of insts issued each cycle
system.cpu00.iq.issued_per_cycle::stdev      2.621476                       # Number of insts issued each cycle
system.cpu00.iq.issued_per_cycle::underflows            0      0.00%      0.00% # Number of insts issued each cycle
system.cpu00.iq.issued_per_cycle::0         227145371     37.32%     37.32% # Number of insts issued each cycle
system.cpu00.iq.issued_per_cycle::1          44106442      7.25%     44.56% # Number of insts issued each cycle
system.cpu00.iq.issued_per_cycle::2          39449261      6.48%     51.05% # Number of insts issued each cycle
system.cpu00.iq.issued_per_cycle::3          66394183     10.91%     61.95% # Number of insts issued each cycle
system.cpu00.iq.issued_per_cycle::4          51143903      8.40%     70.36% # Number of insts issued each cycle
system.cpu00.iq.issued_per_cycle::5          49841212      8.19%     78.54% # Number of insts issued each cycle
system.cpu00.iq.issued_per_cycle::6          81262273     13.35%     91.90% # Number of insts issued each cycle
system.cpu00.iq.issued_per_cycle::7          25652543      4.21%     96.11% # Number of insts issued each cycle
system.cpu00.iq.issued_per_cycle::8          23675520      3.89%    100.00% # Number of insts issued each cycle
system.cpu00.iq.issued_per_cycle::overflows            0      0.00%    100.00% # Number of insts issued each cycle
system.cpu00.iq.issued_per_cycle::min_value            0                       # Number of insts issued each cycle
system.cpu00.iq.issued_per_cycle::max_value            8                       # Number of insts issued each cycle
system.cpu00.iq.issued_per_cycle::total     608670708                       # Number of insts issued each cycle
system.cpu00.iq.rate                         2.681969                       # Inst issue rate
system.cpu00.iq.vec_alu_accesses                    0                       # Number of vector alu accesses
system.cpu00.iq.vec_inst_queue_reads                0                       # Number of vector instruction queue reads
system.cpu00.iq.vec_inst_queue_wakeup_accesses            0                       # Number of vector instruction queue wakeup accesses
system.cpu00.iq.vec_inst_queue_writes               0                       # Number of vector instruction queue writes
system.cpu00.itb.rdAccesses                         0                       # TLB accesses on read requests
system.cpu00.itb.rdMisses                           0                       # TLB misses on read requests
system.cpu00.itb.walker.pwrStateResidencyTicks::UNDEFINED 312977489886                       # Cumulative time (in ticks) in various power states
system.cpu00.itb.wrAccesses                 190073862                       # TLB accesses on write requests
system.cpu00.itb.wrMisses                           6                       # TLB misses on write requests
system.cpu00.memDep0.conflictingLoads         6694433                       # Number of conflicting loads.
system.cpu00.memDep0.conflictingStores           5487                       # Number of conflicting stores.
system.cpu00.memDep0.insertedLoads          158236803                       # Number of loads inserted to the mem dependence unit.
system.cpu00.memDep0.insertedStores          13155634                       # Number of stores inserted to the mem dependence unit.
system.cpu00.misc_regfile_reads             614194555                       # number of misc regfile reads
system.cpu00.numCycles                      608700175                       # number of cpu cycles simulated
system.cpu00.numWorkItemsCompleted                  0                       # number of work items this cpu completed
system.cpu00.numWorkItemsStarted                    0                       # number of work items this cpu started
system.cpu00.pwrStateResidencyTicks::ON  312977489886                       # Cumulative time (in ticks) in various power states
system.cpu00.rename.BlockCycles             115464188                       # Number of cycles rename is blocking
system.cpu00.rename.CommittedMaps          1330473770                       # Number of HB maps that are committed
system.cpu00.rename.IQFullEvents               539239                       # Number of times rename has blocked due to IQ full
system.cpu00.rename.IdleCycles              169813459                       # Number of cycles rename is idle
system.cpu00.rename.ROBFullEvents              287223                       # Number of times rename has blocked due to ROB full
system.cpu00.rename.RenameLookups          4871243250                       # Number of register rename lookups that rename has made
system.cpu00.rename.RenamedInsts           1990244741                       # Number of instructions processed by rename
system.cpu00.rename.RenamedOperands        2629532735                       # Number of destination operands rename has renamed
system.cpu00.rename.RunCycles               300323748                       # Number of cycles rename is running
system.cpu00.rename.SQFullEvents                39377                       # Number of times rename has blocked due to SQ full
system.cpu00.rename.SquashCycles             20033754                       # Number of cycles rename is squashing
system.cpu00.rename.UnblockCycles             3020300                       # Number of cycles rename is unblocking
system.cpu00.rename.UndoneMaps             1299058950                       # Number of HB maps that are undone due to squashing
system.cpu00.rename.fp_rename_lookups          304498                       # Number of floating rename lookups
system.cpu00.rename.int_rename_lookups     2749356789                       # Number of integer rename lookups
system.cpu00.rename.serializeStallCycles        15259                       # count of cycles rename stalled for serializing inst
system.cpu00.rename.serializingInsts               61                       # count of serializing insts renamed
system.cpu00.rename.skidInsts                12439684                       # count of insts added to the skid buffer
system.cpu00.rename.tempSerializingInsts           62                       # count of temporary serializing insts renamed
system.cpu00.rob.rob_reads                 2251422175                       # The number of ROB reads
system.cpu00.rob.rob_writes                3716052086                       # The number of ROB writes
system.cpu00.timesIdled                           103                       # Number of times that the entire CPU went into an idle state and unscheduled itself
system.cpu00.workload.numSyscalls                  48                       # Number of system calls
system.cpu01.apic_clk_domain.clock               5328                       # Clock period in ticks
system.cpu01.branchPred.BTBCorrect                  0                       # Number of correct BTB predictions (this stat may not work properly.
system.cpu01.branchPred.BTBHitPct            0.000000                       # BTB Hit Percentage
system.cpu01.branchPred.BTBHits                     0                       # Number of BTB hits
system.cpu01.branchPred.BTBLookups          234635906                       # Number of BTB lookups
system.cpu01.branchPred.RASInCorrect                7                       # Number of incorrect RAS predictions.
system.cpu01.branchPred.condIncorrect        19590531                       # Number of conditional branches incorrect
system.cpu01.branchPred.condPredicted       303645429                       # Number of conditional branches predicted
system.cpu01.branchPred.indirectHits         94071098                       # Number of indirect target hits.
system.cpu01.branchPred.indirectLookups     234635906                       # Number of indirect predictor lookups.
system.cpu01.branchPred.indirectMisses      140564808                       # Number of indirect misses.
system.cpu01.branchPred.lookups             303645429                       # Number of BP lookups
system.cpu01.branchPred.usedRAS                 85316                       # Number of times the RAS was used to get a target.
system.cpu01.branchPredindirectMispredicted      4772761                       # Number of mispredicted indirect branches.
system.cpu01.cc_regfile_reads               955003228                       # number of cc regfile reads
system.cpu01.cc_regfile_writes              680193388                       # number of cc regfile writes
system.cpu01.commit.amos                            0                       # Number of atomic instructions committed
system.cpu01.commit.branchMispredicts        19590950                       # The number of times a branch was mispredicted
system.cpu01.commit.branches                145185220                       # Number of branches committed
system.cpu01.commit.bw_lim_events            44956420                       # number cycles where commit BW limit reached
system.cpu01.commit.commitNonSpecStalls            17                       # The number of times commit has been forced to stall to communicate backwards
system.cpu01.commit.commitSquashedInsts     789718243                       # The number of squashed insts skipped by commit
system.cpu01.commit.committedInsts          560091102                       # Number of instructions committed
system.cpu01.commit.committedOps            997434978                       # Number of ops (including micro ops) committed
system.cpu01.commit.committed_per_cycle::samples    491578684                       # Number of insts commited each cycle
system.cpu01.commit.committed_per_cycle::mean     2.029044                       # Number of insts commited each cycle
system.cpu01.commit.committed_per_cycle::stdev     2.490427                       # Number of insts commited each cycle
system.cpu01.commit.committed_per_cycle::underflows            0      0.00%      0.00% # Number of insts commited each cycle
system.cpu01.commit.committed_per_cycle::0    196630687     40.00%     40.00% # Number of insts commited each cycle
system.cpu01.commit.committed_per_cycle::1     93948023     19.11%     59.11% # Number of insts commited each cycle
system.cpu01.commit.committed_per_cycle::2     30697232      6.24%     65.36% # Number of insts commited each cycle
system.cpu01.commit.committed_per_cycle::3     54059119     11.00%     76.35% # Number of insts commited each cycle
system.cpu01.commit.committed_per_cycle::4     50470513     10.27%     86.62% # Number of insts commited each cycle
system.cpu01.commit.committed_per_cycle::5     10025793      2.04%     88.66% # Number of insts commited each cycle
system.cpu01.commit.committed_per_cycle::6      7283522      1.48%     90.14% # Number of insts commited each cycle
system.cpu01.commit.committed_per_cycle::7      3507375      0.71%     90.85% # Number of insts commited each cycle
system.cpu01.commit.committed_per_cycle::8     44956420      9.15%    100.00% # Number of insts commited each cycle
system.cpu01.commit.committed_per_cycle::overflows            0      0.00%    100.00% # Number of insts commited each cycle
system.cpu01.commit.committed_per_cycle::min_value            0                       # Number of insts commited each cycle
system.cpu01.commit.committed_per_cycle::max_value            8                       # Number of insts commited each cycle
system.cpu01.commit.committed_per_cycle::total    491578684                       # Number of insts commited each cycle
system.cpu01.commit.fp_insts                       17                       # Number of committed floating point instructions.
system.cpu01.commit.function_calls                 10                       # Number of function calls committed.
system.cpu01.commit.int_insts               989526404                       # Number of committed integer instructions.
system.cpu01.commit.loads                    86354038                       # Number of loads committed
system.cpu01.commit.membars                        10                       # Number of memory barriers committed
system.cpu01.commit.op_class_0::No_OpClass      7560058      0.76%      0.76% # Class of committed instruction
system.cpu01.commit.op_class_0::IntAlu      881126281     88.34%     89.10% # Class of committed instruction
system.cpu01.commit.op_class_0::IntMult      20222570      2.03%     91.12% # Class of committed instruction
system.cpu01.commit.op_class_0::IntDiv              7      0.00%     91.12% # Class of committed instruction
system.cpu01.commit.op_class_0::FloatAdd            0      0.00%     91.12% # Class of committed instruction
system.cpu01.commit.op_class_0::FloatCmp            0      0.00%     91.12% # Class of committed instruction
system.cpu01.commit.op_class_0::FloatCvt            0      0.00%     91.12% # Class of committed instruction
system.cpu01.commit.op_class_0::FloatMult            0      0.00%     91.12% # Class of committed instruction
system.cpu01.commit.op_class_0::FloatMultAcc            0      0.00%     91.12% # Class of committed instruction
system.cpu01.commit.op_class_0::FloatDiv            0      0.00%     91.12% # Class of committed instruction
system.cpu01.commit.op_class_0::FloatMisc            0      0.00%     91.12% # Class of committed instruction
system.cpu01.commit.op_class_0::FloatSqrt            0      0.00%     91.12% # Class of committed instruction
system.cpu01.commit.op_class_0::SimdAdd             0      0.00%     91.12% # Class of committed instruction
system.cpu01.commit.op_class_0::SimdAddAcc            0      0.00%     91.12% # Class of committed instruction
system.cpu01.commit.op_class_0::SimdAlu             0      0.00%     91.12% # Class of committed instruction
system.cpu01.commit.op_class_0::SimdCmp             0      0.00%     91.12% # Class of committed instruction
system.cpu01.commit.op_class_0::SimdCvt             0      0.00%     91.12% # Class of committed instruction
system.cpu01.commit.op_class_0::SimdMisc            1      0.00%     91.12% # Class of committed instruction
system.cpu01.commit.op_class_0::SimdMult            0      0.00%     91.12% # Class of committed instruction
system.cpu01.commit.op_class_0::SimdMultAcc            0      0.00%     91.12% # Class of committed instruction
system.cpu01.commit.op_class_0::SimdShift            0      0.00%     91.12% # Class of committed instruction
system.cpu01.commit.op_class_0::SimdShiftAcc            0      0.00%     91.12% # Class of committed instruction
system.cpu01.commit.op_class_0::SimdDiv             0      0.00%     91.12% # Class of committed instruction
system.cpu01.commit.op_class_0::SimdSqrt            0      0.00%     91.12% # Class of committed instruction
system.cpu01.commit.op_class_0::SimdFloatAdd            0      0.00%     91.12% # Class of committed instruction
system.cpu01.commit.op_class_0::SimdFloatAlu            0      0.00%     91.12% # Class of committed instruction
system.cpu01.commit.op_class_0::SimdFloatCmp            0      0.00%     91.12% # Class of committed instruction
system.cpu01.commit.op_class_0::SimdFloatCvt            0      0.00%     91.12% # Class of committed instruction
system.cpu01.commit.op_class_0::SimdFloatDiv            0      0.00%     91.12% # Class of committed instruction
system.cpu01.commit.op_class_0::SimdFloatMisc            0      0.00%     91.12% # Class of committed instruction
system.cpu01.commit.op_class_0::SimdFloatMult            0      0.00%     91.12% # Class of committed instruction
system.cpu01.commit.op_class_0::SimdFloatMultAcc            0      0.00%     91.12% # Class of committed instruction
system.cpu01.commit.op_class_0::SimdFloatSqrt            0      0.00%     91.12% # Class of committed instruction
system.cpu01.commit.op_class_0::SimdReduceAdd            0      0.00%     91.12% # Class of committed instruction
system.cpu01.commit.op_class_0::SimdReduceAlu            0      0.00%     91.12% # Class of committed instruction
system.cpu01.commit.op_class_0::SimdReduceCmp            0      0.00%     91.12% # Class of committed instruction
system.cpu01.commit.op_class_0::SimdFloatReduceAdd            0      0.00%     91.12% # Class of committed instruction
system.cpu01.commit.op_class_0::SimdFloatReduceCmp            0      0.00%     91.12% # Class of committed instruction
system.cpu01.commit.op_class_0::SimdAes             0      0.00%     91.12% # Class of committed instruction
system.cpu01.commit.op_class_0::SimdAesMix            0      0.00%     91.12% # Class of committed instruction
system.cpu01.commit.op_class_0::SimdSha1Hash            0      0.00%     91.12% # Class of committed instruction
system.cpu01.commit.op_class_0::SimdSha1Hash2            0      0.00%     91.12% # Class of committed instruction
system.cpu01.commit.op_class_0::SimdSha256Hash            0      0.00%     91.12% # Class of committed instruction
system.cpu01.commit.op_class_0::SimdSha256Hash2            0      0.00%     91.12% # Class of committed instruction
system.cpu01.commit.op_class_0::SimdShaSigma2            0      0.00%     91.12% # Class of committed instruction
system.cpu01.commit.op_class_0::SimdShaSigma3            0      0.00%     91.12% # Class of committed instruction
system.cpu01.commit.op_class_0::SimdPredAlu            0      0.00%     91.12% # Class of committed instruction
system.cpu01.commit.op_class_0::MemRead      86354030      8.66%     99.78% # Class of committed instruction
system.cpu01.commit.op_class_0::MemWrite      2172015      0.22%    100.00% # Class of committed instruction
system.cpu01.commit.op_class_0::FloatMemRead            8      0.00%    100.00% # Class of committed instruction
system.cpu01.commit.op_class_0::FloatMemWrite            8      0.00%    100.00% # Class of committed instruction
system.cpu01.commit.op_class_0::IprAccess            0      0.00%    100.00% # Class of committed instruction
system.cpu01.commit.op_class_0::InstPrefetch            0      0.00%    100.00% # Class of committed instruction
system.cpu01.commit.op_class_0::total       997434978                       # Class of committed instruction
system.cpu01.commit.refs                     88526061                       # Number of memory references committed
system.cpu01.commit.swp_count                       0                       # Number of s/w prefetches committed
system.cpu01.commit.vec_insts                       0                       # Number of committed Vector instructions.
system.cpu01.committedInsts                 560091102                       # Number of Instructions Simulated
system.cpu01.committedOps                   997434978                       # Number of Ops (including micro ops) Simulated
system.cpu01.cpi                             1.075971                       # CPI: Cycles Per Instruction
system.cpu01.cpi_total                       1.075971                       # CPI: Total CPI of All Threads
system.cpu01.decode.BlockedCycles           114120940                       # Number of cycles decode is blocked
system.cpu01.decode.DecodedInsts           2064583509                       # Number of instructions handled by decode
system.cpu01.decode.IdleCycles              154732241                       # Number of cycles decode is idle
system.cpu01.decode.RunCycles               296564764                       # Number of cycles decode is running
system.cpu01.decode.SquashCycles             19591352                       # Number of cycles decode is squashing
system.cpu01.decode.UnblockCycles            17619899                       # Number of cycles decode is unblocking
system.cpu01.dtb.rdAccesses                 132728951                       # TLB accesses on read requests
system.cpu01.dtb.rdMisses                         276                       # TLB misses on read requests
system.cpu01.dtb.walker.pwrStateResidencyTicks::UNDEFINED 312977489886                       # Cumulative time (in ticks) in various power states
system.cpu01.dtb.wrAccesses                   3424752                       # TLB accesses on write requests
system.cpu01.dtb.wrMisses                           2                       # TLB misses on write requests
system.cpu01.fetch.Branches                 303645429                       # Number of branches that fetch encountered
system.cpu01.fetch.CacheLines               188528528                       # Number of cache lines fetched
system.cpu01.fetch.Cycles                   383878924                       # Number of cycles fetch has run and was not squashing or blocked
system.cpu01.fetch.IcacheSquashes             6940102                       # Number of outstanding Icache misses that were squashed
system.cpu01.fetch.IcacheWaitRetryStallCycles          225                       # Number of stall cycles due to full MSHR
system.cpu01.fetch.Insts                   1203121265                       # Number of instructions fetch has processed
system.cpu01.fetch.ItlbSquashes                     1                       # Number of outstanding ITLB misses that were squashed
system.cpu01.fetch.MiscStallCycles               2665                       # Number of cycles fetch has spent waiting on interrupts, or bad addresses, or out of MSHRs
system.cpu01.fetch.PendingTrapStallCycles       232846                       # Number of stall cycles due to pending traps
system.cpu01.fetch.SquashCycles              39182704                       # Number of cycles fetch has spent squashing
system.cpu01.fetch.TlbCycles                        3                       # Number of cycles fetch has spent waiting for tlb
system.cpu01.fetch.branchRate                0.503857                       # Number of branch fetches per cycle
system.cpu01.fetch.icacheStallCycles        198923181                       # Number of cycles fetch is stalled on an Icache miss
system.cpu01.fetch.predictedBranches         94156414                       # Number of branches that fetch has predicted taken
system.cpu01.fetch.rate                      1.996411                       # Number of inst fetches per cycle
system.cpu01.fetch.rateDist::samples        602629196                       # Number of instructions fetched each cycle (Total)
system.cpu01.fetch.rateDist::mean            3.596199                       # Number of instructions fetched each cycle (Total)
system.cpu01.fetch.rateDist::stdev           3.497962                       # Number of instructions fetched each cycle (Total)
system.cpu01.fetch.rateDist::underflows             0      0.00%      0.00% # Number of instructions fetched each cycle (Total)
system.cpu01.fetch.rateDist::0              251945315     41.81%     41.81% # Number of instructions fetched each cycle (Total)
system.cpu01.fetch.rateDist::1                5335339      0.89%     42.69% # Number of instructions fetched each cycle (Total)
system.cpu01.fetch.rateDist::2               32537148      5.40%     48.09% # Number of instructions fetched each cycle (Total)
system.cpu01.fetch.rateDist::3               31101442      5.16%     53.25% # Number of instructions fetched each cycle (Total)
system.cpu01.fetch.rateDist::4               25227889      4.19%     57.44% # Number of instructions fetched each cycle (Total)
system.cpu01.fetch.rateDist::5               15772315      2.62%     60.06% # Number of instructions fetched each cycle (Total)
system.cpu01.fetch.rateDist::6               39144774      6.50%     66.55% # Number of instructions fetched each cycle (Total)
system.cpu01.fetch.rateDist::7               23701039      3.93%     70.49% # Number of instructions fetched each cycle (Total)
system.cpu01.fetch.rateDist::8              177863935     29.51%    100.00% # Number of instructions fetched each cycle (Total)
system.cpu01.fetch.rateDist::overflows              0      0.00%    100.00% # Number of instructions fetched each cycle (Total)
system.cpu01.fetch.rateDist::min_value              0                       # Number of instructions fetched each cycle (Total)
system.cpu01.fetch.rateDist::max_value              8                       # Number of instructions fetched each cycle (Total)
system.cpu01.fetch.rateDist::total          602629196                       # Number of instructions fetched each cycle (Total)
system.cpu01.fp_regfile_reads                      10                       # number of floating regfile reads
system.cpu01.fp_regfile_writes                 134889                       # number of floating regfile writes
system.cpu01.idleCycles                         12802                       # Total number of cycles that the CPU has spent unscheduled due to idling
system.cpu01.iew.branchMispredicts           22442470                       # Number of branch mispredicts detected at execute
system.cpu01.iew.exec_branches              202834332                       # Number of branches executed
system.cpu01.iew.exec_nop                           0                       # number of nop insts executed
system.cpu01.iew.exec_rate                   2.615609                       # Inst execution rate
system.cpu01.iew.exec_refs                  166941881                       # number of memory reference insts executed
system.cpu01.iew.exec_stores                  3424752                       # Number of stores executed
system.cpu01.iew.exec_swp                           0                       # number of swp insts executed
system.cpu01.iew.iewBlockCycles              93607620                       # Number of cycles IEW is blocking
system.cpu01.iew.iewDispLoadInsts           156778835                       # Number of dispatched load instructions
system.cpu01.iew.iewDispNonSpecInsts              795                       # Number of dispatched non-speculative instructions
system.cpu01.iew.iewDispSquashedInsts          634024                       # Number of squashed instructions skipped by dispatch
system.cpu01.iew.iewDispStoreInsts           12666490                       # Number of dispatched store instructions
system.cpu01.iew.iewDispatchedInsts        1787160053                       # Number of instructions dispatched to IQ
system.cpu01.iew.iewExecLoadInsts           163517129                       # Number of load instructions executed
system.cpu01.iew.iewExecSquashedInsts        48018714                       # Number of squashed instructions skipped in execute
system.cpu01.iew.iewExecutedInsts          1576276021                       # Number of executed instructions
system.cpu01.iew.iewIQFullEvents                43530                       # Number of times the IQ has become full, causing a stall
system.cpu01.iew.iewIdleCycles                      0                       # Number of cycles IEW is idle
system.cpu01.iew.iewLSQFullEvents                   0                       # Number of times the LSQ has become full, causing a stall
system.cpu01.iew.iewSquashCycles             19591352                       # Number of cycles IEW is squashing
system.cpu01.iew.iewUnblockCycles               51155                       # Number of cycles IEW is unblocking
system.cpu01.iew.lsq.thread0.blockedLoads            0                       # Number of blocked loads due to partial load-store forwarding
system.cpu01.iew.lsq.thread0.cacheBlocked     30599338                       # Number of times an access to memory failed due to the cache being blocked
system.cpu01.iew.lsq.thread0.forwLoads        1832392                       # Number of loads that had data forwarded from stores
system.cpu01.iew.lsq.thread0.ignoredResponses         2344                       # Number of memory responses ignored because the instruction is squashed
system.cpu01.iew.lsq.thread0.invAddrLoads            0                       # Number of loads ignored due to an invalid address
system.cpu01.iew.lsq.thread0.invAddrSwpfs            0                       # Number of software prefetches ignored due to an invalid address
system.cpu01.iew.lsq.thread0.memOrderViolation          566                       # Number of memory ordering violations
system.cpu01.iew.lsq.thread0.rescheduledLoads            0                       # Number of loads that were rescheduled
system.cpu01.iew.lsq.thread0.squashedLoads     70424794                       # Number of loads squashed
system.cpu01.iew.lsq.thread0.squashedStores     10494467                       # Number of stores squashed
system.cpu01.iew.memOrderViolationEvents          566                       # Number of memory order violations
system.cpu01.iew.predictedNotTakenIncorrect     13716390                       # Number of branches that were predicted not taken incorrectly
system.cpu01.iew.predictedTakenIncorrect      8726080                       # Number of branches that were predicted taken incorrectly
system.cpu01.iew.wb_consumers              1709733077                       # num instructions consuming a value
system.cpu01.iew.wb_count                  1529062416                       # cumulative count of insts written-back
system.cpu01.iew.wb_fanout                   0.666861                       # average fanout of values written-back
system.cpu01.iew.wb_producers              1140154347                       # num instructions producing a value
system.cpu01.iew.wb_rate                     2.537265                       # insts written-back per cycle
system.cpu01.iew.wb_sent                   1534983047                       # cumulative count of insts sent to commit
system.cpu01.int_regfile_reads             2088515573                       # number of integer regfile reads
system.cpu01.int_regfile_writes            1337330646                       # number of integer regfile writes
system.cpu01.interrupts.pwrStateResidencyTicks::UNDEFINED 312977489886                       # Cumulative time (in ticks) in various power states
system.cpu01.ipc                             0.929393                       # IPC: Instructions Per Cycle
system.cpu01.ipc_total                       0.929393                       # IPC: Total IPC of All Threads
system.cpu01.iq.FU_type_0::No_OpClass        18818401      1.16%      1.16% # Type of FU issued
system.cpu01.iq.FU_type_0::IntAlu          1399117494     86.14%     87.30% # Type of FU issued
system.cpu01.iq.FU_type_0::IntMult           27105730      1.67%     88.96% # Type of FU issued
system.cpu01.iq.FU_type_0::IntDiv                   7      0.00%     88.96% # Type of FU issued
system.cpu01.iq.FU_type_0::FloatAdd            703717      0.04%     89.01% # Type of FU issued
system.cpu01.iq.FU_type_0::FloatCmp                 0      0.00%     89.01% # Type of FU issued
system.cpu01.iq.FU_type_0::FloatCvt                 0      0.00%     89.01% # Type of FU issued
system.cpu01.iq.FU_type_0::FloatMult                0      0.00%     89.01% # Type of FU issued
system.cpu01.iq.FU_type_0::FloatMultAcc             0      0.00%     89.01% # Type of FU issued
system.cpu01.iq.FU_type_0::FloatDiv                 0      0.00%     89.01% # Type of FU issued
system.cpu01.iq.FU_type_0::FloatMisc                0      0.00%     89.01% # Type of FU issued
system.cpu01.iq.FU_type_0::FloatSqrt                0      0.00%     89.01% # Type of FU issued
system.cpu01.iq.FU_type_0::SimdAdd                  0      0.00%     89.01% # Type of FU issued
system.cpu01.iq.FU_type_0::SimdAddAcc               0      0.00%     89.01% # Type of FU issued
system.cpu01.iq.FU_type_0::SimdAlu                  0      0.00%     89.01% # Type of FU issued
system.cpu01.iq.FU_type_0::SimdCmp                  0      0.00%     89.01% # Type of FU issued
system.cpu01.iq.FU_type_0::SimdCvt                  0      0.00%     89.01% # Type of FU issued
system.cpu01.iq.FU_type_0::SimdMisc                 1      0.00%     89.01% # Type of FU issued
system.cpu01.iq.FU_type_0::SimdMult                 0      0.00%     89.01% # Type of FU issued
system.cpu01.iq.FU_type_0::SimdMultAcc              0      0.00%     89.01% # Type of FU issued
system.cpu01.iq.FU_type_0::SimdShift                0      0.00%     89.01% # Type of FU issued
system.cpu01.iq.FU_type_0::SimdShiftAcc             0      0.00%     89.01% # Type of FU issued
system.cpu01.iq.FU_type_0::SimdDiv                  0      0.00%     89.01% # Type of FU issued
system.cpu01.iq.FU_type_0::SimdSqrt                 0      0.00%     89.01% # Type of FU issued
system.cpu01.iq.FU_type_0::SimdFloatAdd             0      0.00%     89.01% # Type of FU issued
system.cpu01.iq.FU_type_0::SimdFloatAlu             0      0.00%     89.01% # Type of FU issued
system.cpu01.iq.FU_type_0::SimdFloatCmp             0      0.00%     89.01% # Type of FU issued
system.cpu01.iq.FU_type_0::SimdFloatCvt             0      0.00%     89.01% # Type of FU issued
system.cpu01.iq.FU_type_0::SimdFloatDiv             0      0.00%     89.01% # Type of FU issued
system.cpu01.iq.FU_type_0::SimdFloatMisc            0      0.00%     89.01% # Type of FU issued
system.cpu01.iq.FU_type_0::SimdFloatMult            0      0.00%     89.01% # Type of FU issued
system.cpu01.iq.FU_type_0::SimdFloatMultAcc            0      0.00%     89.01% # Type of FU issued
system.cpu01.iq.FU_type_0::SimdFloatSqrt            0      0.00%     89.01% # Type of FU issued
system.cpu01.iq.FU_type_0::SimdReduceAdd            0      0.00%     89.01% # Type of FU issued
system.cpu01.iq.FU_type_0::SimdReduceAlu            0      0.00%     89.01% # Type of FU issued
system.cpu01.iq.FU_type_0::SimdReduceCmp            0      0.00%     89.01% # Type of FU issued
system.cpu01.iq.FU_type_0::SimdFloatReduceAdd            0      0.00%     89.01% # Type of FU issued
system.cpu01.iq.FU_type_0::SimdFloatReduceCmp            0      0.00%     89.01% # Type of FU issued
system.cpu01.iq.FU_type_0::SimdAes                  0      0.00%     89.01% # Type of FU issued
system.cpu01.iq.FU_type_0::SimdAesMix               0      0.00%     89.01% # Type of FU issued
system.cpu01.iq.FU_type_0::SimdSha1Hash             0      0.00%     89.01% # Type of FU issued
system.cpu01.iq.FU_type_0::SimdSha1Hash2            0      0.00%     89.01% # Type of FU issued
system.cpu01.iq.FU_type_0::SimdSha256Hash            0      0.00%     89.01% # Type of FU issued
system.cpu01.iq.FU_type_0::SimdSha256Hash2            0      0.00%     89.01% # Type of FU issued
system.cpu01.iq.FU_type_0::SimdShaSigma2            0      0.00%     89.01% # Type of FU issued
system.cpu01.iq.FU_type_0::SimdShaSigma3            0      0.00%     89.01% # Type of FU issued
system.cpu01.iq.FU_type_0::SimdPredAlu              0      0.00%     89.01% # Type of FU issued
system.cpu01.iq.FU_type_0::MemRead          172947124     10.65%     99.66% # Type of FU issued
system.cpu01.iq.FU_type_0::MemWrite           5468478      0.34%     99.99% # Type of FU issued
system.cpu01.iq.FU_type_0::FloatMemRead        133779      0.01%    100.00% # Type of FU issued
system.cpu01.iq.FU_type_0::FloatMemWrite            9      0.00%    100.00% # Type of FU issued
system.cpu01.iq.FU_type_0::IprAccess                0      0.00%    100.00% # Type of FU issued
system.cpu01.iq.FU_type_0::InstPrefetch             0      0.00%    100.00% # Type of FU issued
system.cpu01.iq.FU_type_0::total           1624294740                       # Type of FU issued
system.cpu01.iq.fp_alu_accesses                837512                       # Number of floating point alu accesses
system.cpu01.iq.fp_inst_queue_reads           1675309                       # Number of floating instruction queue reads
system.cpu01.iq.fp_inst_queue_wakeup_accesses       134841                       # Number of floating instruction queue wakeup accesses
system.cpu01.iq.fp_inst_queue_writes          2816095                       # Number of floating instruction queue writes
system.cpu01.iq.fu_busy_cnt                  53186385                       # FU busy when requested
system.cpu01.iq.fu_busy_rate                 0.032744                       # FU busy rate (busy events/executed inst)
system.cpu01.iq.fu_full::No_OpClass                 0      0.00%      0.00% # attempts to use FU when none available
system.cpu01.iq.fu_full::IntAlu              53089766     99.82%     99.82% # attempts to use FU when none available
system.cpu01.iq.fu_full::IntMult                    0      0.00%     99.82% # attempts to use FU when none available
system.cpu01.iq.fu_full::IntDiv                     0      0.00%     99.82% # attempts to use FU when none available
system.cpu01.iq.fu_full::FloatAdd                   0      0.00%     99.82% # attempts to use FU when none available
system.cpu01.iq.fu_full::FloatCmp                   0      0.00%     99.82% # attempts to use FU when none available
system.cpu01.iq.fu_full::FloatCvt                   0      0.00%     99.82% # attempts to use FU when none available
system.cpu01.iq.fu_full::FloatMult                  0      0.00%     99.82% # attempts to use FU when none available
system.cpu01.iq.fu_full::FloatMultAcc               0      0.00%     99.82% # attempts to use FU when none available
system.cpu01.iq.fu_full::FloatDiv                   0      0.00%     99.82% # attempts to use FU when none available
system.cpu01.iq.fu_full::FloatMisc                  0      0.00%     99.82% # attempts to use FU when none available
system.cpu01.iq.fu_full::FloatSqrt                  0      0.00%     99.82% # attempts to use FU when none available
system.cpu01.iq.fu_full::SimdAdd                    0      0.00%     99.82% # attempts to use FU when none available
system.cpu01.iq.fu_full::SimdAddAcc                 0      0.00%     99.82% # attempts to use FU when none available
system.cpu01.iq.fu_full::SimdAlu                    0      0.00%     99.82% # attempts to use FU when none available
system.cpu01.iq.fu_full::SimdCmp                    0      0.00%     99.82% # attempts to use FU when none available
system.cpu01.iq.fu_full::SimdCvt                    0      0.00%     99.82% # attempts to use FU when none available
system.cpu01.iq.fu_full::SimdMisc                   0      0.00%     99.82% # attempts to use FU when none available
system.cpu01.iq.fu_full::SimdMult                   0      0.00%     99.82% # attempts to use FU when none available
system.cpu01.iq.fu_full::SimdMultAcc                0      0.00%     99.82% # attempts to use FU when none available
system.cpu01.iq.fu_full::SimdShift                  0      0.00%     99.82% # attempts to use FU when none available
system.cpu01.iq.fu_full::SimdShiftAcc               0      0.00%     99.82% # attempts to use FU when none available
system.cpu01.iq.fu_full::SimdDiv                    0      0.00%     99.82% # attempts to use FU when none available
system.cpu01.iq.fu_full::SimdSqrt                   0      0.00%     99.82% # attempts to use FU when none available
system.cpu01.iq.fu_full::SimdFloatAdd               0      0.00%     99.82% # attempts to use FU when none available
system.cpu01.iq.fu_full::SimdFloatAlu               0      0.00%     99.82% # attempts to use FU when none available
system.cpu01.iq.fu_full::SimdFloatCmp               0      0.00%     99.82% # attempts to use FU when none available
system.cpu01.iq.fu_full::SimdFloatCvt               0      0.00%     99.82% # attempts to use FU when none available
system.cpu01.iq.fu_full::SimdFloatDiv               0      0.00%     99.82% # attempts to use FU when none available
system.cpu01.iq.fu_full::SimdFloatMisc              0      0.00%     99.82% # attempts to use FU when none available
system.cpu01.iq.fu_full::SimdFloatMult              0      0.00%     99.82% # attempts to use FU when none available
system.cpu01.iq.fu_full::SimdFloatMultAcc            0      0.00%     99.82% # attempts to use FU when none available
system.cpu01.iq.fu_full::SimdFloatSqrt              0      0.00%     99.82% # attempts to use FU when none available
system.cpu01.iq.fu_full::SimdReduceAdd              0      0.00%     99.82% # attempts to use FU when none available
system.cpu01.iq.fu_full::SimdReduceAlu              0      0.00%     99.82% # attempts to use FU when none available
system.cpu01.iq.fu_full::SimdReduceCmp              0      0.00%     99.82% # attempts to use FU when none available
system.cpu01.iq.fu_full::SimdFloatReduceAdd            0      0.00%     99.82% # attempts to use FU when none available
system.cpu01.iq.fu_full::SimdFloatReduceCmp            0      0.00%     99.82% # attempts to use FU when none available
system.cpu01.iq.fu_full::SimdAes                    0      0.00%     99.82% # attempts to use FU when none available
system.cpu01.iq.fu_full::SimdAesMix                 0      0.00%     99.82% # attempts to use FU when none available
system.cpu01.iq.fu_full::SimdSha1Hash               0      0.00%     99.82% # attempts to use FU when none available
system.cpu01.iq.fu_full::SimdSha1Hash2              0      0.00%     99.82% # attempts to use FU when none available
system.cpu01.iq.fu_full::SimdSha256Hash             0      0.00%     99.82% # attempts to use FU when none available
system.cpu01.iq.fu_full::SimdSha256Hash2            0      0.00%     99.82% # attempts to use FU when none available
system.cpu01.iq.fu_full::SimdShaSigma2              0      0.00%     99.82% # attempts to use FU when none available
system.cpu01.iq.fu_full::SimdShaSigma3              0      0.00%     99.82% # attempts to use FU when none available
system.cpu01.iq.fu_full::SimdPredAlu                0      0.00%     99.82% # attempts to use FU when none available
system.cpu01.iq.fu_full::MemRead                95779      0.18%    100.00% # attempts to use FU when none available
system.cpu01.iq.fu_full::MemWrite                 834      0.00%    100.00% # attempts to use FU when none available
system.cpu01.iq.fu_full::FloatMemRead               6      0.00%    100.00% # attempts to use FU when none available
[...]
system.ruby.network.int_links44.network_link.pwrStateResidencyTicks::UNDEFINED 312993143550                       # Cumulative time (in ticks) in various power states
system.ruby.network.int_links45.credit_link.pwrStateResidencyTicks::UNDEFINED 312993143550                       # Cumulative time (in ticks) in various power states
system.ruby.network.int_links45.network_link.pwrStateResidencyTicks::UNDEFINED 312993143550                       # Cumulative time (in ticks) in various power states
system.ruby.network.int_links46.credit_link.pwrStateResidencyTicks::UNDEFINED 312993143550                       # Cumulative time (in ticks) in various power states
system.ruby.network.int_links46.network_link.pwrStateResidencyTicks::UNDEFINED 312993143550                       # Cumulative time (in ticks) in various power states
system.ruby.network.int_links47.credit_link.pwrStateResidencyTicks::UNDEFINED 312993143550                       # Cumulative time (in ticks) in various power states
system.ruby.network.int_links47.network_link.pwrStateResidencyTicks::UNDEFINED 312993143550                       # Cumulative time (in ticks) in various power states
system.ruby.network.netifs00.pwrStateResidencyTicks::UNDEFINED 312993143550                       # Cumulative time (in ticks) in various power states
system.ruby.network.netifs01.pwrStateResidencyTicks::UNDEFINED 312993143550                       # Cumulative time (in ticks) in various power states
system.ruby.network.netifs02.pwrStateResidencyTicks::UNDEFINED 312993143550                       # Cumulative time (in ticks) in various power states
system.ruby.network.netifs03.pwrStateResidencyTicks::UNDEFINED 312993143550                       # Cumulative time (in ticks) in various power states
system.ruby.network.netifs04.pwrStateResidencyTicks::UNDEFINED 312993143550                       # Cumulative time (in ticks) in various power states
system.ruby.network.netifs05.pwrStateResidencyTicks::UNDEFINED 312993143550                       # Cumulative time (in ticks) in various power states
system.ruby.network.netifs06.pwrStateResidencyTicks::UNDEFINED 312993143550                       # Cumulative time (in ticks) in various power states
system.ruby.network.netifs07.pwrStateResidencyTicks::UNDEFINED 312993143550                       # Cumulative time (in ticks) in various power states
system.ruby.network.netifs08.pwrStateResidencyTicks::UNDEFINED 312993143550                       # Cumulative time (in ticks) in various power states
system.ruby.network.netifs09.pwrStateResidencyTicks::UNDEFINED 312993143550                       # Cumulative time (in ticks) in various power states
system.ruby.network.netifs10.pwrStateResidencyTicks::UNDEFINED 312993143550                       # Cumulative time (in ticks) in various power states
system.ruby.network.netifs11.pwrStateResidencyTicks::UNDEFINED 312993143550                       # Cumulative time (in ticks) in various power states
system.ruby.network.netifs12.pwrStateResidencyTicks::UNDEFINED 312993143550                       # Cumulative time (in ticks) in various power states
system.ruby.network.netifs13.pwrStateResidencyTicks::UNDEFINED 312993143550                       # Cumulative time (in ticks) in various power states
system.ruby.network.netifs14.pwrStateResidencyTicks::UNDEFINED 312993143550                       # Cumulative time (in ticks) in various power states
system.ruby.network.netifs15.pwrStateResidencyTicks::UNDEFINED 312993143550                       # Cumulative time (in ticks) in various power states
system.ruby.network.netifs16.pwrStateResidencyTicks::UNDEFINED 312993143550                       # Cumulative time (in ticks) in various power states
system.ruby.network.netifs17.pwrStateResidencyTicks::UNDEFINED 312993143550                       # Cumulative time (in ticks) in various power states
system.ruby.network.netifs18.pwrStateResidencyTicks::UNDEFINED 312993143550                       # Cumulative time (in ticks) in various power states
system.ruby.network.netifs19.pwrStateResidencyTicks::UNDEFINED 312993143550                       # Cumulative time (in ticks) in various power states
system.ruby.network.netifs20.pwrStateResidencyTicks::UNDEFINED 312993143550                       # Cumulative time (in ticks) in various power states
system.ruby.network.netifs21.pwrStateResidencyTicks::UNDEFINED 312993143550                       # Cumulative time (in ticks) in various power states
system.ruby.network.netifs22.pwrStateResidencyTicks::UNDEFINED 312993143550                       # Cumulative time (in ticks) in various power states
system.ruby.network.netifs23.pwrStateResidencyTicks::UNDEFINED 312993143550                       # Cumulative time (in ticks) in various power states
system.ruby.network.netifs24.pwrStateResidencyTicks::UNDEFINED 312993143550                       # Cumulative time (in ticks) in various power states
system.ruby.network.netifs25.pwrStateResidencyTicks::UNDEFINED 312993143550                       # Cumulative time (in ticks) in various power states
system.ruby.network.netifs26.pwrStateResidencyTicks::UNDEFINED 312993143550                       # Cumulative time (in ticks) in various power states
system.ruby.network.netifs27.pwrStateResidencyTicks::UNDEFINED 312993143550                       # Cumulative time (in ticks) in various power states
system.ruby.network.netifs28.pwrStateResidencyTicks::UNDEFINED 312993143550                       # Cumulative time (in ticks) in various power states
system.ruby.network.netifs29.pwrStateResidencyTicks::UNDEFINED 312993143550                       # Cumulative time (in ticks) in various power states
system.ruby.network.netifs30.pwrStateResidencyTicks::UNDEFINED 312993143550                       # Cumulative time (in ticks) in various power states
system.ruby.network.netifs31.pwrStateResidencyTicks::UNDEFINED 312993143550                       # Cumulative time (in ticks) in various power states
system.ruby.network.netifs32.pwrStateResidencyTicks::UNDEFINED 312993143550                       # Cumulative time (in ticks) in various power states
system.ruby.network.netifs33.pwrStateResidencyTicks::UNDEFINED 312993143550                       # Cumulative time (in ticks) in various power states
system.ruby.network.netifs34.pwrStateResidencyTicks::UNDEFINED 312993143550                       # Cumulative time (in ticks) in various power states
system.ruby.network.netifs35.pwrStateResidencyTicks::UNDEFINED 312993143550                       # Cumulative time (in ticks) in various power states
system.ruby.network.netifs36.pwrStateResidencyTicks::UNDEFINED 312993143550                       # Cumulative time (in ticks) in various power states
system.ruby.network.netifs37.pwrStateResidencyTicks::UNDEFINED 312993143550                       # Cumulative time (in ticks) in various power states
system.ruby.network.netifs38.pwrStateResidencyTicks::UNDEFINED 312993143550                       # Cumulative time (in ticks) in various power states
system.ruby.network.netifs39.pwrStateResidencyTicks::UNDEFINED 312993143550                       # Cumulative time (in ticks) in various power states
system.ruby.network.netifs40.pwrStateResidencyTicks::UNDEFINED 312993143550                       # Cumulative time (in ticks) in various power states
system.ruby.network.netifs41.pwrStateResidencyTicks::UNDEFINED 312993143550                       # Cumulative time (in ticks) in various power states
system.ruby.network.netifs42.pwrStateResidencyTicks::UNDEFINED 312993143550                       # Cumulative time (in ticks) in various power states
system.ruby.network.netifs43.pwrStateResidencyTicks::UNDEFINED 312993143550                       # Cumulative time (in ticks) in various power states
system.ruby.network.netifs44.pwrStateResidencyTicks::UNDEFINED 312993143550                       # Cumulative time (in ticks) in various power states
system.ruby.network.netifs45.pwrStateResidencyTicks::UNDEFINED 312993143550                       # Cumulative time (in ticks) in various power states
system.ruby.network.netifs46.pwrStateResidencyTicks::UNDEFINED 312993143550                       # Cumulative time (in ticks) in various power states
system.ruby.network.netifs47.pwrStateResidencyTicks::UNDEFINED 312993143550                       # Cumulative time (in ticks) in various power states
system.ruby.network.packet_network_latency |    76802288                       |     5746697                       |   113042017                      
system.ruby.network.packet_queueing_latency |     9099552                       |      404295                       |    47562103                      
system.ruby.network.packets_injected     |     7082273     37.73%     37.73% |      404295      2.15%     39.88% |    11284462     60.12%    100.00%
system.ruby.network.packets_injected::total     18771030                      
system.ruby.network.packets_received     |     7082271     37.73%     37.73% |      404295      2.15%     39.88% |    11284462     60.12%    100.00%
system.ruby.network.packets_received::total     18771028                      
system.ruby.network.pwrStateResidencyTicks::UNDEFINED 312993143550                       # Cumulative time (in ticks) in various power states
system.ruby.network.routers00.buffer_reads     17030073                      
system.ruby.network.routers00.buffer_writes     17030073                      
system.ruby.network.routers00.crossbar_activity      8517908                      
system.ruby.network.routers00.pwrStateResidencyTicks::UNDEFINED 312993143550                       # Cumulative time (in ticks) in various power states
system.ruby.network.routers00.sw_input_arbiter_activity      8528818                      
system.ruby.network.routers00.sw_output_arbiter_activity      8517908                      
system.ruby.network.routers01.buffer_reads     23522954                      
system.ruby.network.routers01.buffer_writes     23522954                      
system.ruby.network.routers01.crossbar_activity     11763024                      
system.ruby.network.routers01.pwrStateResidencyTicks::UNDEFINED 312993143550                       # Cumulative time (in ticks) in various power states
system.ruby.network.routers01.sw_input_arbiter_activity     11787696                      
system.ruby.network.routers01.sw_output_arbiter_activity     11763024                      
system.ruby.network.routers02.buffer_reads     27846454                      
system.ruby.network.routers02.buffer_writes     27846454                      
system.ruby.network.routers02.crossbar_activity     13924316                      
system.ruby.network.routers02.pwrStateResidencyTicks::UNDEFINED 312993143550                       # Cumulative time (in ticks) in various power states
system.ruby.network.routers02.sw_input_arbiter_activity     13953484                      
system.ruby.network.routers02.sw_output_arbiter_activity     13924316                      
system.ruby.network.routers03.buffer_reads     20942812                      
system.ruby.network.routers03.buffer_writes     20942812                      
system.ruby.network.routers03.crossbar_activity     10472041                      
system.ruby.network.routers03.pwrStateResidencyTicks::UNDEFINED 312993143550                       # Cumulative time (in ticks) in various power states
system.ruby.network.routers03.sw_input_arbiter_activity     10482930                      
system.ruby.network.routers03.sw_output_arbiter_activity     10472041                      
system.ruby.network.routers04.buffer_reads     14109292                      
system.ruby.network.routers04.buffer_writes     14109292                      
system.ruby.network.routers04.crossbar_activity      7056106                      
system.ruby.network.routers04.pwrStateResidencyTicks::UNDEFINED 312993143550                       # Cumulative time (in ticks) in various power states
system.ruby.network.routers04.sw_input_arbiter_activity      7060928                      
system.ruby.network.routers04.sw_output_arbiter_activity      7056106                      
system.ruby.network.routers05.buffer_reads     15710548                      
system.ruby.network.routers05.buffer_writes     15710548                      
system.ruby.network.routers05.crossbar_activity      7855985                      
system.ruby.network.routers05.pwrStateResidencyTicks::UNDEFINED 312993143550                       # Cumulative time (in ticks) in various power states
system.ruby.network.routers05.sw_input_arbiter_activity      7861394                      
system.ruby.network.routers05.sw_output_arbiter_activity      7855985                      
system.ruby.network.routers06.buffer_reads     18204714                      
system.ruby.network.routers06.buffer_writes     18204714                      
system.ruby.network.routers06.crossbar_activity      9102936                      
system.ruby.network.routers06.pwrStateResidencyTicks::UNDEFINED 312993143550                       # Cumulative time (in ticks) in various power states
system.ruby.network.routers06.sw_input_arbiter_activity      9110704                      
system.ruby.network.routers06.sw_output_arbiter_activity      9102936                      
system.ruby.network.routers07.buffer_reads     16286828                      
system.ruby.network.routers07.buffer_writes     16286828                      
system.ruby.network.routers07.crossbar_activity      8143880                      
system.ruby.network.routers07.pwrStateResidencyTicks::UNDEFINED 312993143550                       # Cumulative time (in ticks) in various power states
system.ruby.network.routers07.sw_input_arbiter_activity      8152132                      
system.ruby.network.routers07.sw_output_arbiter_activity      8143880                      
system.ruby.network.routers08.buffer_reads     12865250                      
system.ruby.network.routers08.buffer_writes     12865250                      
system.ruby.network.routers08.crossbar_activity      6433656                      
system.ruby.network.routers08.pwrStateResidencyTicks::UNDEFINED 312993143550                       # Cumulative time (in ticks) in various power states
system.ruby.network.routers08.sw_input_arbiter_activity      6438244                      
system.ruby.network.routers08.sw_output_arbiter_activity      6433656                      
system.ruby.network.routers09.buffer_reads     15096159                      
system.ruby.network.routers09.buffer_writes     15096159                      
system.ruby.network.routers09.crossbar_activity      7548766                      
system.ruby.network.routers09.pwrStateResidencyTicks::UNDEFINED 312993143550                       # Cumulative time (in ticks) in various power states
system.ruby.network.routers09.sw_input_arbiter_activity      7554670                      
system.ruby.network.routers09.sw_output_arbiter_activity      7548766                      
system.ruby.network.routers10.buffer_reads     16646562                      
system.ruby.network.routers10.buffer_writes     16646562                      
system.ruby.network.routers10.crossbar_activity      8323899                      
system.ruby.network.routers10.pwrStateResidencyTicks::UNDEFINED 312993143550                       # Cumulative time (in ticks) in various power states
system.ruby.network.routers10.sw_input_arbiter_activity      8332226                      
system.ruby.network.routers10.sw_output_arbiter_activity      8323899                      
system.ruby.network.routers11.buffer_reads     15094219                      
system.ruby.network.routers11.buffer_writes     15094219                      
system.ruby.network.routers11.crossbar_activity      7547565                      
system.ruby.network.routers11.pwrStateResidencyTicks::UNDEFINED 312993143550                       # Cumulative time (in ticks) in various power states
system.ruby.network.routers11.sw_input_arbiter_activity      7554700                      
system.ruby.network.routers11.sw_output_arbiter_activity      7547565                      
system.ruby.network.routers12.buffer_reads     10079239                      
system.ruby.network.routers12.buffer_writes     10079239                      
system.ruby.network.routers12.crossbar_activity      5040164                      
system.ruby.network.routers12.pwrStateResidencyTicks::UNDEFINED 312993143550                       # Cumulative time (in ticks) in various power states
system.ruby.network.routers12.sw_input_arbiter_activity      5042781                      
system.ruby.network.routers12.sw_output_arbiter_activity      5040164                      
system.ruby.network.routers13.buffer_reads     13307867                      
system.ruby.network.routers13.buffer_writes     13307867                      
system.ruby.network.routers13.crossbar_activity      6654446                      
system.ruby.network.routers13.pwrStateResidencyTicks::UNDEFINED 312993143550                       # Cumulative time (in ticks) in various power states
system.ruby.network.routers13.sw_input_arbiter_activity      6659933                      
system.ruby.network.routers13.sw_output_arbiter_activity      6654446                      
system.ruby.network.routers14.buffer_reads     15084930                      
system.ruby.network.routers14.buffer_writes     15084930                      
system.ruby.network.routers14.crossbar_activity      7542906                      
system.ruby.network.routers14.pwrStateResidencyTicks::UNDEFINED 312993143550                       # Cumulative time (in ticks) in various power states
system.ruby.network.routers14.sw_input_arbiter_activity      7549996                      
system.ruby.network.routers14.sw_output_arbiter_activity      7542906                      
system.ruby.network.routers15.buffer_reads     15563001                      
system.ruby.network.routers15.buffer_writes     15563001                      
system.ruby.network.routers15.crossbar_activity      7781829                      
system.ruby.network.routers15.pwrStateResidencyTicks::UNDEFINED 312993143550                       # Cumulative time (in ticks) in various power states
system.ruby.network.routers15.sw_input_arbiter_activity      7791134                      
system.ruby.network.routers15.sw_output_arbiter_activity      7781829                      
system.ruby.outstanding_req_hist_seqr::bucket_size            1                      
system.ruby.outstanding_req_hist_seqr::max_bucket            9                      
system.ruby.outstanding_req_hist_seqr::samples  10206725863                      
system.ruby.outstanding_req_hist_seqr::mean     1.172912                      
system.ruby.outstanding_req_hist_seqr::gmean     1.123321                      
system.ruby.outstanding_req_hist_seqr::stdev     0.409872                      
system.ruby.outstanding_req_hist_seqr    |           0      0.00%      0.00% |  8567582130     83.94%     83.94% |  1515137353     14.84%     98.79% |   122343811      1.20%     99.98% |     1610511      0.02%    100.00% |       51371      0.00%    100.00% |         648      0.00%    100.00% |          34      0.00%    100.00% |           5      0.00%    100.00% |           0      0.00%    100.00%
system.ruby.outstanding_req_hist_seqr::total  10206725863                      
system.ruby.pwrStateResidencyTicks::UNDEFINED 312993143550                       # Cumulative time (in ticks) in various power states
system.sys_port_proxy.pwrStateResidencyTicks::UNDEFINED 312993143550                       # Cumulative time (in ticks) in various power states
system.voltage_domain.voltage                       1                       # Voltage in Volts

---------- End Simulation Statistics   ----------
