
---------- Begin Simulation Statistics ----------
final_tick                               760004711856                       # Number of ticks from beginning of simulation (restored from checkpoints and never reset)
host_inst_rate                                  70940                       # Simulator instruction rate (inst/s)
host_mem_usage                                1510760                       # Number of bytes of host memory used
host_op_rate                                   323574                       # Simulator op (including micro ops) rate (op/s)
host_seconds                                234916.12                       # Real time elapsed on the host
host_tick_rate                                3234993                       # Simulator tick rate (ticks/s)
sim_freq                                 1000000000000                       # Frequency of simulated ticks
sim_insts                                 16665003784                       # Number of instructions simulated
sim_ops                                   76012723726                       # Number of ops (including micro ops) simulated
sim_seconds                                  0.759952                       # Number of seconds simulated
sim_ticks                                759952066221                       # Number of ticks simulated
system.clk_domain.clock                          1000                       # Clock period in ticks
system.cpu00.apic_clk_domain.clock               5328                       # Clock period in ticks
system.cpu00.branchPred.BTBCorrect                  0                       # Number of correct BTB predictions (this stat may not work properly.
system.cpu00.branchPred.BTBHitPct            0.000000                       # BTB Hit Percentage
system.cpu00.branchPred.BTBHits                     0                       # Number of BTB hits
system.cpu00.branchPred.BTBLookups          112271807                       # Number of BTB lookups
system.cpu00.branchPred.RASInCorrect              113                       # Number of incorrect RAS predictions.
system.cpu00.branchPred.condIncorrect          120159                       # Number of conditional branches incorrect
system.cpu00.branchPred.condPredicted       224263408                       # Number of conditional branches predicted
system.cpu00.branchPred.indirectHits        112230309                       # Number of indirect target hits.
system.cpu00.branchPred.indirectLookups     112271807                       # Number of indirect predictor lookups.
system.cpu00.branchPred.indirectMisses          41498                       # Number of indirect misses.
system.cpu00.branchPred.lookups             224263408                       # Number of BP lookups
system.cpu00.branchPred.usedRAS                   779                       # Number of times the RAS was used to get a target.
system.cpu00.branchPredindirectMispredicted         2732                       # Number of mispredicted indirect branches.
system.cpu00.cc_regfile_reads              7323112717                       # number of cc regfile reads
system.cpu00.cc_regfile_writes             1336304006                       # number of cc regfile writes
system.cpu00.commit.amos                            0                       # Number of atomic instructions committed
system.cpu00.commit.branchMispredicts          120213                       # The number of times a branch was mispredicted
system.cpu00.commit.branches                223486563                       # Number of branches committed
system.cpu00.commit.bw_lim_events           111337639                       # number cycles where commit BW limit reached
system.cpu00.commit.commitNonSpecStalls           492                       # The number of times commit has been forced to stall to communicate backwards
system.cpu00.commit.commitSquashedInsts       9012210                       # The number of squashed insts skipped by commit
system.cpu00.commit.committedInsts         1002209186                       # Number of instructions committed
system.cpu00.commit.committedOps           4664228295                       # Number of ops (including micro ops) committed
system.cpu00.commit.committed_per_cycle::samples   2219466403                       # Number of insts commited each cycle
system.cpu00.commit.committed_per_cycle::mean     2.101509                       # Number of insts commited each cycle
system.cpu00.commit.committed_per_cycle::stdev     1.974794                       # Number of insts commited each cycle
system.cpu00.commit.committed_per_cycle::underflows            0      0.00%      0.00% # Number of insts commited each cycle
system.cpu00.commit.committed_per_cycle::0      1121649      0.05%      0.05% # Number of insts commited each cycle
system.cpu00.commit.committed_per_cycle::1   1551607083     69.91%     69.96% # Number of insts commited each cycle
system.cpu00.commit.committed_per_cycle::2       272299      0.01%     69.97% # Number of insts commited each cycle
system.cpu00.commit.committed_per_cycle::3    332859966     15.00%     84.97% # Number of insts commited each cycle
system.cpu00.commit.committed_per_cycle::4         7082      0.00%     84.97% # Number of insts commited each cycle
system.cpu00.commit.committed_per_cycle::5    111118244      5.01%     89.98% # Number of insts commited each cycle
system.cpu00.commit.committed_per_cycle::6    110821031      4.99%     94.97% # Number of insts commited each cycle
system.cpu00.commit.committed_per_cycle::7       321410      0.01%     94.98% # Number of insts commited each cycle
system.cpu00.commit.committed_per_cycle::8    111337639      5.02%    100.00% # Number of insts commited each cycle
system.cpu00.commit.committed_per_cycle::overflows            0      0.00%    100.00% # Number of insts commited each cycle
system.cpu00.commit.committed_per_cycle::min_value            0                       # Number of insts commited each cycle
system.cpu00.commit.committed_per_cycle::max_value            8                       # Number of insts commited each cycle
system.cpu00.commit.committed_per_cycle::total   2219466403                       # Number of insts commited each cycle
system.cpu00.commit.fp_insts                     2039                       # Number of committed floating point instructions.
system.cpu00.commit.function_calls                252                       # Number of function calls committed.
system.cpu00.commit.int_insts              4552955000                       # Number of committed integer instructions.
system.cpu00.commit.loads                      861240                       # Number of loads committed
system.cpu00.commit.membars                       294                       # Number of memory barriers committed
system.cpu00.commit.op_class_0::No_OpClass    110959872      2.38%      2.38% # Class of committed instruction
system.cpu00.commit.op_class_0::IntAlu     3776150306     80.96%     83.34% # Class of committed instruction
system.cpu00.commit.op_class_0::IntMult            17      0.00%     83.34% # Class of committed instruction
system.cpu00.commit.op_class_0::IntDiv      776231059     16.64%     99.98% # Class of committed instruction
system.cpu00.commit.op_class_0::FloatAdd           31      0.00%     99.98% # Class of committed instruction
system.cpu00.commit.op_class_0::FloatCmp            0      0.00%     99.98% # Class of committed instruction
system.cpu00.commit.op_class_0::FloatCvt            0      0.00%     99.98% # Class of committed instruction
system.cpu00.commit.op_class_0::FloatMult            0      0.00%     99.98% # Class of committed instruction
system.cpu00.commit.op_class_0::FloatMultAcc            0      0.00%     99.98% # Class of committed instruction
system.cpu00.commit.op_class_0::FloatDiv            0      0.00%     99.98% # Class of committed instruction
system.cpu00.commit.op_class_0::FloatMisc            0      0.00%     99.98% # Class of committed instruction
system.cpu00.commit.op_class_0::FloatSqrt            0      0.00%     99.98% # Class of committed instruction
system.cpu00.commit.op_class_0::SimdAdd             0      0.00%     99.98% # Class of committed instruction
system.cpu00.commit.op_class_0::SimdAddAcc            0      0.00%     99.98% # Class of committed instruction
system.cpu00.commit.op_class_0::SimdAlu             0      0.00%     99.98% # Class of committed instruction
system.cpu00.commit.op_class_0::SimdCmp             0      0.00%     99.98% # Class of committed instruction
system.cpu00.commit.op_class_0::SimdCvt             0      0.00%     99.98% # Class of committed instruction
system.cpu00.commit.op_class_0::SimdMisc          212      0.00%     99.98% # Class of committed instruction
system.cpu00.commit.op_class_0::SimdMult            0      0.00%     99.98% # Class of committed instruction
system.cpu00.commit.op_class_0::SimdMultAcc            0      0.00%     99.98% # Class of committed instruction
system.cpu00.commit.op_class_0::SimdShift            0      0.00%     99.98% # Class of committed instruction
system.cpu00.commit.op_class_0::SimdShiftAcc            0      0.00%     99.98% # Class of committed instruction
system.cpu00.commit.op_class_0::SimdDiv             0      0.00%     99.98% # Class of committed instruction
system.cpu00.commit.op_class_0::SimdSqrt            0      0.00%     99.98% # Class of committed instruction
system.cpu00.commit.op_class_0::SimdFloatAdd            0      0.00%     99.98% # Class of committed instruction
system.cpu00.commit.op_class_0::SimdFloatAlu            0      0.00%     99.98% # Class of committed instruction
system.cpu00.commit.op_class_0::SimdFloatCmp            0      0.00%     99.98% # Class of committed instruction
system.cpu00.commit.op_class_0::SimdFloatCvt            0      0.00%     99.98% # Class of committed instruction
system.cpu00.commit.op_class_0::SimdFloatDiv            0      0.00%     99.98% # Class of committed instruction
system.cpu00.commit.op_class_0::SimdFloatMisc            0      0.00%     99.98% # Class of committed instruction
system.cpu00.commit.op_class_0::SimdFloatMult            0      0.00%     99.98% # Class of committed instruction
system.cpu00.commit.op_class_0::SimdFloatMultAcc            0      0.00%     99.98% # Class of committed instruction
system.cpu00.commit.op_class_0::SimdFloatSqrt            0      0.00%     99.98% # Class of committed instruction
system.cpu00.commit.op_class_0::SimdReduceAdd            0      0.00%     99.98% # Class of committed instruction
system.cpu00.commit.op_class_0::SimdReduceAlu            0      0.00%     99.98% # Class of committed instruction
system.cpu00.commit.op_class_0::SimdReduceCmp            0      0.00%     99.98% # Class of committed instruction
system.cpu00.commit.op_class_0::SimdFloatReduceAdd            0      0.00%     99.98% # Class of committed instruction
system.cpu00.commit.op_class_0::SimdFloatReduceCmp            0      0.00%     99.98% # Class of committed instruction
system.cpu00.commit.op_class_0::SimdAes             0      0.00%     99.98% # Class of committed instruction
system.cpu00.commit.op_class_0::SimdAesMix            0      0.00%     99.98% # Class of committed instruction
system.cpu00.commit.op_class_0::SimdSha1Hash            0      0.00%     99.98% # Class of committed instruction
system.cpu00.commit.op_class_0::SimdSha1Hash2            0      0.00%     99.98% # Class of committed instruction
system.cpu00.commit.op_class_0::SimdSha256Hash            0      0.00%     99.98% # Class of committed instruction
system.cpu00.commit.op_class_0::SimdSha256Hash2            0      0.00%     99.98% # Class of committed instruction
system.cpu00.commit.op_class_0::SimdShaSigma2            0      0.00%     99.98% # Class of committed instruction
system.cpu00.commit.op_class_0::SimdShaSigma3            0      0.00%     99.98% # Class of committed instruction
system.cpu00.commit.op_class_0::SimdPredAlu            0      0.00%     99.98% # Class of committed instruction
system.cpu00.commit.op_class_0::MemRead        860926      0.02%    100.00% # Class of committed instruction
system.cpu00.commit.op_class_0::MemWrite        24106      0.00%    100.00% # Class of committed instruction
system.cpu00.commit.op_class_0::FloatMemRead          314      0.00%    100.00% # Class of committed instruction
system.cpu00.commit.op_class_0::FloatMemWrite         1452      0.00%    100.00% # Class of committed instruction
system.cpu00.commit.op_class_0::IprAccess            0      0.00%    100.00% # Class of committed instruction
system.cpu00.commit.op_class_0::InstPrefetch            0      0.00%    100.00% # Class of committed instruction
system.cpu00.commit.op_class_0::total      4664228295                       # Class of committed instruction
system.cpu00.commit.refs                       886798                       # Number of memory references committed
system.cpu00.commit.swp_count                       0                       # Number of s/w prefetches committed
system.cpu00.commit.vec_insts                       0                       # Number of committed Vector instructions.
system.cpu00.committedInsts                1002209186                       # Number of Instructions Simulated
system.cpu00.committedOps                  4664228295                       # Number of Ops (including micro ops) Simulated
system.cpu00.cpi                             2.215791                       # CPI: Cycles Per Instruction
system.cpu00.cpi_total                       2.215791                       # CPI: Total CPI of All Threads
system.cpu00.decode.BlockedCycles          1441674635                       # Number of cycles decode is blocked
system.cpu00.decode.DecodedInsts           4674450184                       # Number of instructions handled by decode
system.cpu00.decode.IdleCycles              194038046                       # Number of cycles decode is idle
system.cpu00.decode.RunCycles                 3145281                       # Number of cycles decode is running
system.cpu00.decode.SquashCycles               120227                       # Number of cycles decode is squashing
system.cpu00.decode.UnblockCycles           581666250                       # Number of cycles decode is unblocking
system.cpu00.dtb.rdAccesses                    880908                       # TLB accesses on read requests
system.cpu00.dtb.rdMisses                          60                       # TLB misses on read requests
system.cpu00.dtb.walker.pwrStateResidencyTicks::UNDEFINED 760004711856                       # Cumulative time (in ticks) in various power states
system.cpu00.dtb.wrAccesses                     28039                       # TLB accesses on write requests
system.cpu00.dtb.wrMisses                         130                       # TLB misses on write requests
system.cpu00.fetch.Branches                 224263408                       # Number of branches that fetch encountered
system.cpu00.fetch.CacheLines                   21218                       # Number of cache lines fetched
system.cpu00.fetch.Cycles                  2220471118                       # Number of cycles fetch has run and was not squashing or blocked
system.cpu00.fetch.IcacheSquashes                 546                       # Number of outstanding Icache misses that were squashed
system.cpu00.fetch.IcacheWaitRetryStallCycles         3372                       # Number of stall cycles due to full MSHR
system.cpu00.fetch.Insts                   1005424933                       # Number of instructions fetch has processed
system.cpu00.fetch.MiscStallCycles              13723                       # Number of cycles fetch has spent waiting on interrupts, or bad addresses, or out of MSHRs
system.cpu00.fetch.PendingTrapStallCycles          697                       # Number of stall cycles due to pending traps
system.cpu00.fetch.SquashCycles                240454                       # Number of cycles fetch has spent squashing
system.cpu00.fetch.branchRate                0.100988                       # Number of branch fetches per cycle
system.cpu00.fetch.icacheStallCycles            35302                       # Number of cycles fetch is stalled on an Icache miss
system.cpu00.fetch.predictedBranches        112231088                       # Number of branches that fetch has predicted taken
system.cpu00.fetch.rate                      0.452754                       # Number of inst fetches per cycle
system.cpu00.fetch.rateDist::samples       2220644439                       # Number of instructions fetched each cycle (Total)
system.cpu00.fetch.rateDist::mean            2.106961                       # Number of instructions fetched each cycle (Total)
system.cpu00.fetch.rateDist::stdev           3.377913                       # Number of instructions fetched each cycle (Total)
system.cpu00.fetch.rateDist::underflows             0      0.00%      0.00% # Number of instructions fetched each cycle (Total)
system.cpu00.fetch.rateDist::0             1551922692     69.89%     69.89% # Number of instructions fetched each cycle (Total)
system.cpu00.fetch.rateDist::1                 129047      0.01%     69.89% # Number of instructions fetched each cycle (Total)
system.cpu00.fetch.rateDist::2               55525472      2.50%     72.39% # Number of instructions fetched each cycle (Total)
system.cpu00.fetch.rateDist::3                 614873      0.03%     72.42% # Number of instructions fetched each cycle (Total)
system.cpu00.fetch.rateDist::4               55618316      2.50%     74.92% # Number of instructions fetched each cycle (Total)
system.cpu00.fetch.rateDist::5                 148307      0.01%     74.93% # Number of instructions fetched each cycle (Total)
system.cpu00.fetch.rateDist::6               55376763      2.49%     77.43% # Number of instructions fetched each cycle (Total)
system.cpu00.fetch.rateDist::7                 161159      0.01%     77.43% # Number of instructions fetched each cycle (Total)
system.cpu00.fetch.rateDist::8              501147810     22.57%    100.00% # Number of instructions fetched each cycle (Total)
system.cpu00.fetch.rateDist::overflows              0      0.00%    100.00% # Number of instructions fetched each cycle (Total)
system.cpu00.fetch.rateDist::min_value              0                       # Number of instructions fetched each cycle (Total)
system.cpu00.fetch.rateDist::max_value              8                       # Number of instructions fetched each cycle (Total)
system.cpu00.fetch.rateDist::total         2220644439                       # Number of instructions fetched each cycle (Total)
system.cpu00.fp_regfile_reads                    2784                       # number of floating regfile reads
system.cpu00.fp_regfile_writes                    597                       # number of floating regfile writes
system.cpu00.idleCycles                         41272                       # Total number of cycles that the CPU has spent unscheduled due to idling
system.cpu00.iew.branchMispredicts             122137                       # Number of branch mispredicts detected at execute
system.cpu00.iew.exec_branches              223572317                       # Number of branches executed
system.cpu00.iew.exec_nop                           0                       # number of nop insts executed
system.cpu00.iew.exec_rate                   2.101514                       # Inst execution rate
system.cpu00.iew.exec_refs                     958246                       # number of memory reference insts executed
system.cpu00.iew.exec_stores                    28038                       # Number of stores executed
system.cpu00.iew.exec_swp                           0                       # number of swp insts executed
system.cpu00.iew.iewBlockCycles               1106500                       # Number of cycles IEW is blocking
system.cpu00.iew.iewDispLoadInsts              887780                       # Number of dispatched load instructions
system.cpu00.iew.iewDispNonSpecInsts              356                       # Number of dispatched non-speculative instructions
system.cpu00.iew.iewDispSquashedInsts            1584                       # Number of squashed instructions skipped by dispatch
system.cpu00.iew.iewDispStoreInsts              33607                       # Number of dispatched store instructions
system.cpu00.iew.iewDispatchedInsts        4673240470                       # Number of instructions dispatched to IQ
system.cpu00.iew.iewExecLoadInsts              930208                       # Number of load instructions executed
system.cpu00.iew.iewExecSquashedInsts           50736                       # Number of squashed instructions skipped in execute
system.cpu00.iew.iewExecutedInsts          4666802700                       # Number of executed instructions
system.cpu00.iew.iewIQFullEvents                  374                       # Number of times the IQ has become full, causing a stall
system.cpu00.iew.iewIdleCycles                      0                       # Number of cycles IEW is idle
system.cpu00.iew.iewLSQFullEvents               12646                       # Number of times the LSQ has become full, causing a stall
system.cpu00.iew.iewSquashCycles               120227                       # Number of cycles IEW is squashing
system.cpu00.iew.iewUnblockCycles               13206                       # Number of cycles IEW is unblocking
system.cpu00.iew.lsq.thread0.blockedLoads            0                       # Number of blocked loads due to partial load-store forwarding
system.cpu00.iew.lsq.thread0.cacheBlocked        16487                       # Number of times an access to memory failed due to the cache being blocked
system.cpu00.iew.lsq.thread0.forwLoads           1535                       # Number of loads that had data forwarded from stores
system.cpu00.iew.lsq.thread0.ignoredResponses            5                       # Number of memory responses ignored because the instruction is squashed
system.cpu00.iew.lsq.thread0.invAddrLoads            0                       # Number of loads ignored due to an invalid address
system.cpu00.iew.lsq.thread0.invAddrSwpfs            0                       # Number of software prefetches ignored due to an invalid address
system.cpu00.iew.lsq.thread0.memOrderViolation           18                       # Number of memory ordering violations
system.cpu00.iew.lsq.thread0.rescheduledLoads            1                       # Number of loads that were rescheduled
system.cpu00.iew.lsq.thread0.squashedLoads        26542                       # Number of loads squashed
system.cpu00.iew.lsq.thread0.squashedStores         8050                       # Number of stores squashed
system.cpu00.iew.memOrderViolationEvents           18                       # Number of memory order violations
system.cpu00.iew.predictedNotTakenIncorrect        72188                       # Number of branches that were predicted not taken incorrectly
system.cpu00.iew.predictedTakenIncorrect        49949                       # Number of branches that were predicted taken incorrectly
system.cpu00.iew.wb_consumers             12511457174                       # num instructions consuming a value
system.cpu00.iew.wb_count                  4666745006                       # cumulative count of insts written-back
system.cpu00.iew.wb_fanout                   0.350628                       # average fanout of values written-back
system.cpu00.iew.wb_producers              4386861686                       # num instructions producing a value
system.cpu00.iew.wb_rate                     2.101488                       # insts written-back per cycle
system.cpu00.iew.wb_sent                   4666746868                       # cumulative count of insts sent to commit
system.cpu00.int_regfile_reads            11208407771                       # number of integer regfile reads
system.cpu00.int_regfile_writes            5995569607                       # number of integer regfile writes
system.cpu00.interrupts.pwrStateResidencyTicks::UNDEFINED 760004711856                       # Cumulative time (in ticks) in various power states
system.cpu00.ipc                             0.451306                       # IPC: Instructions Per Cycle
system.cpu00.ipc_total                       0.451306                       # IPC: Total IPC of All Threads
system.cpu00.iq.FU_type_0::No_OpClass       110963548      2.38%      2.38% # Type of FU issued
system.cpu00.iq.FU_type_0::IntAlu          3778557034     80.97%     83.34% # Type of FU issued
system.cpu00.iq.FU_type_0::IntMult                 20      0.00%     83.34% # Type of FU issued
system.cpu00.iq.FU_type_0::IntDiv           776370931     16.64%     99.98% # Type of FU issued
system.cpu00.iq.FU_type_0::FloatAdd                34      0.00%     99.98% # Type of FU issued
system.cpu00.iq.FU_type_0::FloatCmp                 0      0.00%     99.98% # Type of FU issued
system.cpu00.iq.FU_type_0::FloatCvt                 0      0.00%     99.98% # Type of FU issued
system.cpu00.iq.FU_type_0::FloatMult                0      0.00%     99.98% # Type of FU issued
system.cpu00.iq.FU_type_0::FloatMultAcc             0      0.00%     99.98% # Type of FU issued
system.cpu00.iq.FU_type_0::FloatDiv                 0      0.00%     99.98% # Type of FU issued
system.cpu00.iq.FU_type_0::FloatMisc                0      0.00%     99.98% # Type of FU issued
system.cpu00.iq.FU_type_0::FloatSqrt                0      0.00%     99.98% # Type of FU issued
system.cpu00.iq.FU_type_0::SimdAdd                  0      0.00%     99.98% # Type of FU issued
system.cpu00.iq.FU_type_0::SimdAddAcc               0      0.00%     99.98% # Type of FU issued
system.cpu00.iq.FU_type_0::SimdAlu                  6      0.00%     99.98% # Type of FU issued
system.cpu00.iq.FU_type_0::SimdCmp                  0      0.00%     99.98% # Type of FU issued
system.cpu00.iq.FU_type_0::SimdCvt                  0      0.00%     99.98% # Type of FU issued
system.cpu00.iq.FU_type_0::SimdMisc               217      0.00%     99.98% # Type of FU issued
system.cpu00.iq.FU_type_0::SimdMult                 0      0.00%     99.98% # Type of FU issued
system.cpu00.iq.FU_type_0::SimdMultAcc              0      0.00%     99.98% # Type of FU issued
system.cpu00.iq.FU_type_0::SimdShift                0      0.00%     99.98% # Type of FU issued
system.cpu00.iq.FU_type_0::SimdShiftAcc             0      0.00%     99.98% # Type of FU issued
system.cpu00.iq.FU_type_0::SimdDiv                  0      0.00%     99.98% # Type of FU issued
system.cpu00.iq.FU_type_0::SimdSqrt                 0      0.00%     99.98% # Type of FU issued
system.cpu00.iq.FU_type_0::SimdFloatAdd             0      0.00%     99.98% # Type of FU issued
system.cpu00.iq.FU_type_0::SimdFloatAlu             0      0.00%     99.98% # Type of FU issued
system.cpu00.iq.FU_type_0::SimdFloatCmp             0      0.00%     99.98% # Type of FU issued
system.cpu00.iq.FU_type_0::SimdFloatCvt             0      0.00%     99.98% # Type of FU issued
system.cpu00.iq.FU_type_0::SimdFloatDiv             0      0.00%     99.98% # Type of FU issued
system.cpu00.iq.FU_type_0::SimdFloatMisc            0      0.00%     99.98% # Type of FU issued
system.cpu00.iq.FU_type_0::SimdFloatMult            0      0.00%     99.98% # Type of FU issued
system.cpu00.iq.FU_type_0::SimdFloatMultAcc            0      0.00%     99.98% # Type of FU issued
system.cpu00.iq.FU_type_0::SimdFloatSqrt            0      0.00%     99.98% # Type of FU issued
system.cpu00.iq.FU_type_0::SimdReduceAdd            0      0.00%     99.98% # Type of FU issued
system.cpu00.iq.FU_type_0::SimdReduceAlu            0      0.00%     99.98% # Type of FU issued
system.cpu00.iq.FU_type_0::SimdReduceCmp            0      0.00%     99.98% # Type of FU issued
system.cpu00.iq.FU_type_0::SimdFloatReduceAdd            0      0.00%     99.98% # Type of FU issued
system.cpu00.iq.FU_type_0::SimdFloatReduceCmp            0      0.00%     99.98% # Type of FU issued
system.cpu00.iq.FU_type_0::SimdAes                  0      0.00%     99.98% # Type of FU issued
system.cpu00.iq.FU_type_0::SimdAesMix               0      0.00%     99.98% # Type of FU issued
system.cpu00.iq.FU_type_0::SimdSha1Hash             0      0.00%     99.98% # Type of FU issued
system.cpu00.iq.FU_type_0::SimdSha1Hash2            0      0.00%     99.98% # Type of FU issued
system.cpu00.iq.FU_type_0::SimdSha256Hash            0      0.00%     99.98% # Type of FU issued
system.cpu00.iq.FU_type_0::SimdSha256Hash2            0      0.00%     99.98% # Type of FU issued
system.cpu00.iq.FU_type_0::SimdShaSigma2            0      0.00%     99.98% # Type of FU issued
system.cpu00.iq.FU_type_0::SimdShaSigma3            0      0.00%     99.98% # Type of FU issued
system.cpu00.iq.FU_type_0::SimdPredAlu              0      0.00%     99.98% # Type of FU issued
system.cpu00.iq.FU_type_0::MemRead             932308      0.02%    100.00% # Type of FU issued
system.cpu00.iq.FU_type_0::MemWrite             27193      0.00%    100.00% # Type of FU issued
system.cpu00.iq.FU_type_0::FloatMemRead           638      0.00%    100.00% # Type of FU issued
system.cpu00.iq.FU_type_0::FloatMemWrite         1502      0.00%    100.00% # Type of FU issued
system.cpu00.iq.FU_type_0::IprAccess                0      0.00%    100.00% # Type of FU issued
system.cpu00.iq.FU_type_0::InstPrefetch             0      0.00%    100.00% # Type of FU issued
system.cpu00.iq.FU_type_0::total           4666853431                       # Type of FU issued
system.cpu00.iq.fp_alu_accesses                  2583                       # Number of floating point alu accesses
system.cpu00.iq.fp_inst_queue_reads              5023                       # Number of floating instruction queue reads
system.cpu00.iq.fp_inst_queue_wakeup_accesses         2086                       # Number of floating instruction queue wakeup accesses
system.cpu00.iq.fp_inst_queue_writes             2413                       # Number of floating instruction queue writes
system.cpu00.iq.fu_busy_cnt                     54254                       # FU busy when requested
system.cpu00.iq.fu_busy_rate                 0.000012                       # FU busy rate (busy events/executed inst)
system.cpu00.iq.fu_full::No_OpClass                 0      0.00%      0.00% # attempts to use FU when none available
system.cpu00.iq.fu_full::IntAlu                 46411     85.54%     85.54% # attempts to use FU when none available
system.cpu00.iq.fu_full::IntMult                    0      0.00%     85.54% # attempts to use FU when none available
system.cpu00.iq.fu_full::IntDiv                     0      0.00%     85.54% # attempts to use FU when none available
system.cpu00.iq.fu_full::FloatAdd                   0      0.00%     85.54% # attempts to use FU when none available
system.cpu00.iq.fu_full::FloatCmp                   0      0.00%     85.54% # attempts to use FU when none available
system.cpu00.iq.fu_full::FloatCvt                   0      0.00%     85.54% # attempts to use FU when none available
system.cpu00.iq.fu_full::FloatMult                  0      0.00%     85.54% # attempts to use FU when none available
system.cpu00.iq.fu_full::FloatMultAcc               0      0.00%     85.54% # attempts to use FU when none available
system.cpu00.iq.fu_full::FloatDiv                   0      0.00%     85.54% # attempts to use FU when none available
system.cpu00.iq.fu_full::FloatMisc                  0      0.00%     85.54% # attempts to use FU when none available
system.cpu00.iq.fu_full::FloatSqrt                  0      0.00%     85.54% # attempts to use FU when none available
system.cpu00.iq.fu_full::SimdAdd                    0      0.00%     85.54% # attempts to use FU when none available
system.cpu00.iq.fu_full::SimdAddAcc                 0      0.00%     85.54% # attempts to use FU when none available
system.cpu00.iq.fu_full::SimdAlu                    0      0.00%     85.54% # attempts to use FU when none available
system.cpu00.iq.fu_full::SimdCmp                    0      0.00%     85.54% # attempts to use FU when none available
system.cpu00.iq.fu_full::SimdCvt                    0      0.00%     85.54% # attempts to use FU when none available
system.cpu00.iq.fu_full::SimdMisc                   0      0.00%     85.54% # attempts to use FU when none available
system.cpu00.iq.fu_full::SimdMult                   0      0.00%     85.54% # attempts to use FU when none available
system.cpu00.iq.fu_full::SimdMultAcc                0      0.00%     85.54% # attempts to use FU when none available
system.cpu00.iq.fu_full::SimdShift                  0      0.00%     85.54% # attempts to use FU when none available
system.cpu00.iq.fu_full::SimdShiftAcc               0      0.00%     85.54% # attempts to use FU when none available
system.cpu00.iq.fu_full::SimdDiv                    0      0.00%     85.54% # attempts to use FU when none available
system.cpu00.iq.fu_full::SimdSqrt                   0      0.00%     85.54% # attempts to use FU when none available
system.cpu00.iq.fu_full::SimdFloatAdd               0      0.00%     85.54% # attempts to use FU when none available
system.cpu00.iq.fu_full::SimdFloatAlu               0      0.00%     85.54% # attempts to use FU when none available
system.cpu00.iq.fu_full::SimdFloatCmp               0      0.00%     85.54% # attempts to use FU when none available
system.cpu00.iq.fu_full::SimdFloatCvt               0      0.00%     85.54% # attempts to use FU when none available
system.cpu00.iq.fu_full::SimdFloatDiv               0      0.00%     85.54% # attempts to use FU when none available
system.cpu00.iq.fu_full::SimdFloatMisc              0      0.00%     85.54% # attempts to use FU when none available
system.cpu00.iq.fu_full::SimdFloatMult              0      0.00%     85.54% # attempts to use FU when none available
system.cpu00.iq.fu_full::SimdFloatMultAcc            0      0.00%     85.54% # attempts to use FU when none available
system.cpu00.iq.fu_full::SimdFloatSqrt              0      0.00%     85.54% # attempts to use FU when none available
system.cpu00.iq.fu_full::SimdReduceAdd              0      0.00%     85.54% # attempts to use FU when none available
system.cpu00.iq.fu_full::SimdReduceAlu              0      0.00%     85.54% # attempts to use FU when none available
system.cpu00.iq.fu_full::SimdReduceCmp              0      0.00%     85.54% # attempts to use FU when none available
system.cpu00.iq.fu_full::SimdFloatReduceAdd            0      0.00%     85.54% # attempts to use FU when none available
system.cpu00.iq.fu_full::SimdFloatReduceCmp            0      0.00%     85.54% # attempts to use FU when none available
system.cpu00.iq.fu_full::SimdAes                    0      0.00%     85.54% # attempts to use FU when none available
system.cpu00.iq.fu_full::SimdAesMix                 0      0.00%     85.54% # attempts to use FU when none available
system.cpu00.iq.fu_full::SimdSha1Hash               0      0.00%     85.54% # attempts to use FU when none available
system.cpu00.iq.fu_full::SimdSha1Hash2              0      0.00%     85.54% # attempts to use FU when none available
system.cpu00.iq.fu_full::SimdSha256Hash             0      0.00%     85.54% # attempts to use FU when none available
system.cpu00.iq.fu_full::SimdSha256Hash2            0      0.00%     85.54% # attempts to use FU when none available
system.cpu00.iq.fu_full::SimdShaSigma2              0      0.00%     85.54% # attempts to use FU when none available
system.cpu00.iq.fu_full::SimdShaSigma3              0      0.00%     85.54% # attempts to use FU when none available
system.cpu00.iq.fu_full::SimdPredAlu                0      0.00%     85.54% # attempts to use FU when none available
system.cpu00.iq.fu_full::MemRead                 7427     13.69%     99.23% # attempts to use FU when none available
system.cpu00.iq.fu_full::MemWrite                 260      0.48%     99.71% # attempts to use FU when none available
system.cpu00.iq.fu_full::FloatMemRead              34      0.06%     99.78% # attempts to use FU when none available
system.cpu00.iq.fu_full::FloatMemWrite            122      0.22%    100.00% # attempts to use FU when none available
system.cpu00.iq.fu_full::IprAccess                  0      0.00%    100.00% # attempts to use FU when none available
system.cpu00.iq.fu_full::InstPrefetch               0      0.00%    100.00% # attempts to use FU when none available
system.cpu00.iq.int_alu_accesses           4555941554                       # Number of integer alu accesses
system.cpu00.iq.int_inst_queue_reads      11554405874                       # Number of integer instruction queue reads
system.cpu00.iq.int_inst_queue_wakeup_accesses   4666742920                       # Number of integer instruction queue wakeup accesses
system.cpu00.iq.int_inst_queue_writes      4682250266                       # Number of integer instruction queue writes
system.cpu00.iq.iqInstsAdded               4673239623                       # Number of instructions added to the IQ (excludes non-spec)
system.cpu00.iq.iqInstsIssued              4666853431                       # Number of instructions issued
system.cpu00.iq.iqNonSpecInstsAdded               847                       # Number of non-speculative instructions added to the IQ
system.cpu00.iq.iqSquashedInstsExamined       9012191                       # Number of squashed instructions iterated over during squash; mainly for profiling
system.cpu00.iq.iqSquashedInstsIssued            5337                       # Number of squashed instructions issued
system.cpu00.iq.iqSquashedNonSpecRemoved          355                       # Number of squashed non-spec instructions that were removed
system.cpu00.iq.iqSquashedOperandsExamined     30126618                       # Number of squashed operands that are examined and possibly removed from graph
system.cpu00.iq.issued_per_cycle::samples   2220644439                       # Number of insts issued each cycle
system.cpu00.iq.issued_per_cycle::mean       2.101576                       # Number of insts issued each cycle
system.cpu00.iq.issued_per_cycle::stdev      0.854416                       # Number of insts issued each cycle
system.cpu00.iq.issued_per_cycle::underflows            0      0.00%      0.00% # Number of insts issued each cycle
system.cpu00.iq.issued_per_cycle::0           1906453      0.09%      0.09% # Number of insts issued each cycle
system.cpu00.iq.issued_per_cycle::1         499044384     22.47%     22.56% # Number of insts issued each cycle
system.cpu00.iq.issued_per_cycle::2        1190738271     53.62%     76.18% # Number of insts issued each cycle
system.cpu00.iq.issued_per_cycle::3         332825212     14.99%     91.17% # Number of insts issued each cycle
system.cpu00.iq.issued_per_cycle::4         194094600      8.74%     99.91% # Number of insts issued each cycle
system.cpu00.iq.issued_per_cycle::5           1097708      0.05%     99.96% # Number of insts issued each cycle
system.cpu00.iq.issued_per_cycle::6            582946      0.03%     99.98% # Number of insts issued each cycle
system.cpu00.iq.issued_per_cycle::7            346667      0.02%    100.00% # Number of insts issued each cycle
system.cpu00.iq.issued_per_cycle::8              8198      0.00%    100.00% # Number of insts issued each cycle
system.cpu00.iq.issued_per_cycle::overflows            0      0.00%    100.00% # Number of insts issued each cycle
system.cpu00.iq.issued_per_cycle::min_value            0                       # Number of insts issued each cycle
system.cpu00.iq.issued_per_cycle::max_value            8                       # Number of insts issued each cycle
system.cpu00.iq.issued_per_cycle::total    2220644439                       # Number of insts issued each cycle
system.cpu00.iq.rate                         2.101537                       # Inst issue rate
system.cpu00.iq.vec_alu_accesses                    0                       # Number of vector alu accesses
system.cpu00.iq.vec_inst_queue_reads                0                       # Number of vector instruction queue reads
system.cpu00.iq.vec_inst_queue_wakeup_accesses            0                       # Number of vector instruction queue wakeup accesses
system.cpu00.iq.vec_inst_queue_writes               0                       # Number of vector instruction queue writes
system.cpu00.itb.rdAccesses                         0                       # TLB accesses on read requests
system.cpu00.itb.rdMisses                           0                       # TLB misses on read requests
system.cpu00.itb.walker.pwrStateResidencyTicks::UNDEFINED 760004711856                       # Cumulative time (in ticks) in various power states
system.cpu00.itb.wrAccesses                     21306                       # TLB accesses on write requests
system.cpu00.itb.wrMisses                          94                       # TLB misses on write requests
system.cpu00.memDep0.conflictingLoads            2832                       # Number of conflicting loads.
system.cpu00.memDep0.conflictingStores           1492                       # Number of conflicting stores.
system.cpu00.memDep0.insertedLoads             887780                       # Number of loads inserted to the mem dependence unit.
system.cpu00.memDep0.insertedStores             33607                       # Number of stores inserted to the mem dependence unit.
system.cpu00.misc_regfile_reads             226360323                       # number of misc regfile reads
system.cpu00.numCycles                     2220685711                       # number of cpu cycles simulated
system.cpu00.numPwrStateTransitions                 2                       # Number of power state transitions
system.cpu00.numWorkItemsCompleted                  0                       # number of work items this cpu completed
system.cpu00.numWorkItemsStarted                    0                       # number of work items this cpu started
system.cpu00.pwrStateClkGateDist::samples            1                       # Distribution of time spent in the clock gated state
system.cpu00.pwrStateClkGateDist::mean    20463724791                       # Distribution of time spent in the clock gated state
system.cpu00.pwrStateClkGateDist::1000-5e+10            1    100.00%    100.00% # Distribution of time spent in the clock gated state
system.cpu00.pwrStateClkGateDist::min_value  20463724791                       # Distribution of time spent in the clock gated state
system.cpu00.pwrStateClkGateDist::max_value  20463724791                       # Distribution of time spent in the clock gated state
system.cpu00.pwrStateClkGateDist::total             1                       # Distribution of time spent in the clock gated state
system.cpu00.pwrStateResidencyTicks::ON  739540987065                       # Cumulative time (in ticks) in various power states
system.cpu00.pwrStateResidencyTicks::CLK_GATED  20463724791                       # Cumulative time (in ticks) in various power states
system.cpu00.quiesceCycles                   61452626                       # Total number of cycles that CPU has spent quiesced or waiting for an interrupt
system.cpu00.rename.BlockCycles               1144082                       # Number of cycles rename is blocking
system.cpu00.rename.CommittedMaps          7327781880                       # Number of HB maps that are committed
system.cpu00.rename.IQFullEvents           1329694552                       # Number of times rename has blocked due to IQ full
system.cpu00.rename.IdleCycles              388012437                       # Number of cycles rename is idle
system.cpu00.rename.LQFullEvents                    8                       # Number of times rename has blocked due to LQ full
system.cpu00.rename.ROBFullEvents                5769                       # Number of times rename has blocked due to ROB full
system.cpu00.rename.RenameLookups         18790380127                       # Number of register rename lookups that rename has made
system.cpu00.rename.RenamedInsts           4673841781                       # Number of instructions processed by rename
system.cpu00.rename.RenamedOperands        7342713045                       # Number of destination operands rename has renamed
system.cpu00.rename.RunCycles               390720644                       # Number of cycles rename is running
system.cpu00.rename.SQFullEvents               259055                       # Number of times rename has blocked due to SQ full
system.cpu00.rename.SquashCycles               120227                       # Number of cycles rename is squashing
system.cpu00.rename.UnblockCycles          1440620848                       # Number of cycles rename is unblocking
system.cpu00.rename.UndoneMaps               14931181                       # Number of HB maps that are undone due to squashing
system.cpu00.rename.fp_rename_lookups            2159                       # Number of floating rename lookups
system.cpu00.rename.int_rename_lookups    11227137561                       # Number of integer rename lookups
system.cpu00.rename.serializeStallCycles        26201                       # count of cycles rename stalled for serializing inst
system.cpu00.rename.serializingInsts              119                       # count of serializing insts renamed
system.cpu00.rename.skidInsts              2715783135                       # count of insts added to the skid buffer
system.cpu00.rename.tempSerializingInsts          121                       # count of temporary serializing insts renamed
system.cpu00.rob.rob_reads                 6781369256                       # The number of ROB reads
system.cpu00.rob.rob_writes                9347659160                       # The number of ROB writes
system.cpu00.timesIdled                           150                       # Number of times that the entire CPU went into an idle state and unscheduled itself
system.cpu00.workload.numSyscalls                  50                       # Number of system calls
system.cpu01.apic_clk_domain.clock               5328                       # Clock period in ticks
system.cpu01.branchPred.BTBCorrect                  0                       # Number of correct BTB predictions (this stat may not work properly.
system.cpu01.branchPred.BTBHitPct            0.000000                       # BTB Hit Percentage
system.cpu01.branchPred.BTBHits                     0                       # Number of BTB hits
system.cpu01.branchPred.BTBLookups          113370223                       # Number of BTB lookups
system.cpu01.branchPred.RASInCorrect               40                       # Number of incorrect RAS predictions.
system.cpu01.branchPred.condIncorrect          122863                       # Number of conditional branches incorrect
system.cpu01.branchPred.condPredicted       226441877                       # Number of conditional branches predicted
system.cpu01.branchPred.indirectHits        113314706                       # Number of indirect target hits.
system.cpu01.branchPred.indirectLookups     113370223                       # Number of indirect predictor lookups.
system.cpu01.branchPred.indirectMisses          55517                       # Number of indirect misses.
system.cpu01.branchPred.lookups             226441877                       # Number of BP lookups
system.cpu01.branchPred.usedRAS                   259                       # Number of times the RAS was used to get a target.
system.cpu01.branchPredindirectMispredicted         4004                       # Number of mispredicted indirect branches.
system.cpu01.cc_regfile_reads              7333940597                       # number of cc regfile reads
system.cpu01.cc_regfile_writes             1342764461                       # number of cc regfile writes
system.cpu01.commit.amos                            0                       # Number of atomic instructions committed
system.cpu01.commit.branchMispredicts          123026                       # The number of times a branch was mispredicted
system.cpu01.commit.branches                225651828                       # Number of branches committed
system.cpu01.commit.bw_lim_events           112383758                       # number cycles where commit BW limit reached
system.cpu01.commit.commitNonSpecStalls            23                       # The number of times commit has been forced to stall to communicate backwards
system.cpu01.commit.commitSquashedInsts       9103833                       # The number of squashed insts skipped by commit
system.cpu01.commit.committedInsts         1007656663                       # Number of instructions committed
system.cpu01.commit.committedOps           4676120536                       # Number of ops (including micro ops) committed
system.cpu01.commit.committed_per_cycle::samples   2221288366                       # Number of insts commited each cycle
system.cpu01.commit.committed_per_cycle::mean     2.105139                       # Number of insts commited each cycle
system.cpu01.commit.committed_per_cycle::stdev     1.978194                       # Number of insts commited each cycle
system.cpu01.commit.committed_per_cycle::underflows            0      0.00%      0.00% # Number of insts commited each cycle
system.cpu01.commit.committed_per_cycle::0       796778      0.04%      0.04% # Number of insts commited each cycle
system.cpu01.commit.committed_per_cycle::1   1551605744     69.85%     69.89% # Number of insts commited each cycle
system.cpu01.commit.committed_per_cycle::2       270462      0.01%     69.90% # Number of insts commited each cycle
system.cpu01.commit.committed_per_cycle::3    333894794     15.03%     84.93% # Number of insts commited each cycle
system.cpu01.commit.committed_per_cycle::4         4507      0.00%     84.93% # Number of insts commited each cycle
system.cpu01.commit.committed_per_cycle::5    111153733      5.00%     89.94% # Number of insts commited each cycle
system.cpu01.commit.committed_per_cycle::6    110817401      4.99%     94.92% # Number of insts commited each cycle
system.cpu01.commit.committed_per_cycle::7       361189      0.02%     94.94% # Number of insts commited each cycle
system.cpu01.commit.committed_per_cycle::8    112383758      5.06%    100.00% # Number of insts commited each cycle
system.cpu01.commit.committed_per_cycle::overflows            0      0.00%    100.00% # Number of insts commited each cycle
system.cpu01.commit.committed_per_cycle::min_value            0                       # Number of insts commited each cycle
system.cpu01.commit.committed_per_cycle::max_value            8                       # Number of insts commited each cycle
system.cpu01.commit.committed_per_cycle::total   2221288366                       # Number of insts commited each cycle
system.cpu01.commit.fp_insts                       17                       # Number of committed floating point instructions.
system.cpu01.commit.function_calls                 14                       # Number of function calls committed.
system.cpu01.commit.int_insts              4564802273                       # Number of committed integer instructions.
system.cpu01.commit.loads                     1948671                       # Number of loads committed
system.cpu01.commit.membars                        14                       # Number of memory barriers committed
system.cpu01.commit.op_class_0::No_OpClass    110962989      2.37%      2.37% # Class of committed instruction
system.cpu01.commit.op_class_0::IntAlu     3786961367     80.99%     83.36% # Class of committed instruction
system.cpu01.commit.op_class_0::IntMult             1      0.00%     83.36% # Class of committed instruction
system.cpu01.commit.op_class_0::IntDiv      776243330     16.60%     99.96% # Class of committed instruction
system.cpu01.commit.op_class_0::FloatAdd            0      0.00%     99.96% # Class of committed instruction
system.cpu01.commit.op_class_0::FloatCmp            0      0.00%     99.96% # Class of committed instruction
system.cpu01.commit.op_class_0::FloatCvt            0      0.00%     99.96% # Class of committed instruction
system.cpu01.commit.op_class_0::FloatMult            0      0.00%     99.96% # Class of committed instruction
system.cpu01.commit.op_class_0::FloatMultAcc            0      0.00%     99.96% # Class of committed instruction
system.cpu01.commit.op_class_0::FloatDiv            0      0.00%     99.96% # Class of committed instruction
system.cpu01.commit.op_class_0::FloatMisc            0      0.00%     99.96% # Class of committed instruction
system.cpu01.commit.op_class_0::FloatSqrt            0      0.00%     99.96% # Class of committed instruction
system.cpu01.commit.op_class_0::SimdAdd             0      0.00%     99.96% # Class of committed instruction
system.cpu01.commit.op_class_0::SimdAddAcc            0      0.00%     99.96% # Class of committed instruction
system.cpu01.commit.op_class_0::SimdAlu             0      0.00%     99.96% # Class of committed instruction
system.cpu01.commit.op_class_0::SimdCmp             0      0.00%     99.96% # Class of committed instruction
system.cpu01.commit.op_class_0::SimdCvt             0      0.00%     99.96% # Class of committed instruction
system.cpu01.commit.op_class_0::SimdMisc            1      0.00%     99.96% # Class of committed instruction
system.cpu01.commit.op_class_0::SimdMult            0      0.00%     99.96% # Class of committed instruction
system.cpu01.commit.op_class_0::SimdMultAcc            0      0.00%     99.96% # Class of committed instruction
system.cpu01.commit.op_class_0::SimdShift            0      0.00%     99.96% # Class of committed instruction
system.cpu01.commit.op_class_0::SimdShiftAcc            0      0.00%     99.96% # Class of committed instruction
system.cpu01.commit.op_class_0::SimdDiv             0      0.00%     99.96% # Class of committed instruction
system.cpu01.commit.op_class_0::SimdSqrt            0      0.00%     99.96% # Class of committed instruction
system.cpu01.commit.op_class_0::SimdFloatAdd            0      0.00%     99.96% # Class of committed instruction
system.cpu01.commit.op_class_0::SimdFloatAlu            0      0.00%     99.96% # Class of committed instruction
system.cpu01.commit.op_class_0::SimdFloatCmp            0      0.00%     99.96% # Class of committed instruction
system.cpu01.commit.op_class_0::SimdFloatCvt            0      0.00%     99.96% # Class of committed instruction
system.cpu01.commit.op_class_0::SimdFloatDiv            0      0.00%     99.96% # Class of committed instruction
system.cpu01.commit.op_class_0::SimdFloatMisc            0      0.00%     99.96% # Class of committed instruction
system.cpu01.commit.op_class_0::SimdFloatMult            0      0.00%     99.96% # Class of committed instruction
system.cpu01.commit.op_class_0::SimdFloatMultAcc            0      0.00%     99.96% # Class of committed instruction
system.cpu01.commit.op_class_0::SimdFloatSqrt            0      0.00%     99.96% # Class of committed instruction
system.cpu01.commit.op_class_0::SimdReduceAdd            0      0.00%     99.96% # Class of committed instruction
system.cpu01.commit.op_class_0::SimdReduceAlu            0      0.00%     99.96% # Class of committed instruction
system.cpu01.commit.op_class_0::SimdReduceCmp            0      0.00%     99.96% # Class of committed instruction
system.cpu01.commit.op_class_0::SimdFloatReduceAdd            0      0.00%     99.96% # Class of committed instruction
system.cpu01.commit.op_class_0::SimdFloatReduceCmp            0      0.00%     99.96% # Class of committed instruction
system.cpu01.commit.op_class_0::SimdAes             0      0.00%     99.96% # Class of committed instruction
system.cpu01.commit.op_class_0::SimdAesMix            0      0.00%     99.96% # Class of committed instruction
system.cpu01.commit.op_class_0::SimdSha1Hash            0      0.00%     99.96% # Class of committed instruction
system.cpu01.commit.op_class_0::SimdSha1Hash2            0      0.00%     99.96% # Class of committed instruction
system.cpu01.commit.op_class_0::SimdSha256Hash            0      0.00%     99.96% # Class of committed instruction
system.cpu01.commit.op_class_0::SimdSha256Hash2            0      0.00%     99.96% # Class of committed instruction
system.cpu01.commit.op_class_0::SimdShaSigma2            0      0.00%     99.96% # Class of committed instruction
system.cpu01.commit.op_class_0::SimdShaSigma3            0      0.00%     99.96% # Class of committed instruction
system.cpu01.commit.op_class_0::SimdPredAlu            0      0.00%     99.96% # Class of committed instruction
system.cpu01.commit.op_class_0::MemRead       1948663      0.04%    100.00% # Class of committed instruction
system.cpu01.commit.op_class_0::MemWrite         4169      0.00%    100.00% # Class of committed instruction
system.cpu01.commit.op_class_0::FloatMemRead            8      0.00%    100.00% # Class of committed instruction
system.cpu01.commit.op_class_0::FloatMemWrite            8      0.00%    100.00% # Class of committed instruction
system.cpu01.commit.op_class_0::IprAccess            0      0.00%    100.00% # Class of committed instruction
system.cpu01.commit.op_class_0::InstPrefetch            0      0.00%    100.00% # Class of committed instruction
system.cpu01.commit.op_class_0::total      4676120536                       # Class of committed instruction
system.cpu01.commit.refs                      1952848                       # Number of memory references committed
system.cpu01.commit.swp_count                       0                       # Number of s/w prefetches committed
system.cpu01.commit.vec_insts                       0                       # Number of committed Vector instructions.
system.cpu01.committedInsts                1007656663                       # Number of Instructions Simulated
system.cpu01.committedOps                  4676120536                       # Number of Ops (including micro ops) Simulated
system.cpu01.cpi                             2.205597                       # CPI: Cycles Per Instruction
system.cpu01.cpi_total                       2.205597                       # CPI: Total CPI of All Threads
system.cpu01.decode.BlockedCycles          1441345871                       # Number of cycles decode is blocked
system.cpu01.decode.DecodedInsts           4686472040                       # Number of instructions handled by decode
system.cpu01.decode.IdleCycles              194022828                       # Number of cycles decode is idle
system.cpu01.decode.RunCycles                 5337296                       # Number of cycles decode is running
system.cpu01.decode.SquashCycles               123031                       # Number of cycles decode is squashing
system.cpu01.decode.UnblockCycles           581652533                       # Number of cycles decode is unblocking
system.cpu01.dtb.rdAccesses                   1969455                       # TLB accesses on read requests
system.cpu01.dtb.rdMisses                          26                       # TLB misses on read requests
system.cpu01.dtb.walker.pwrStateResidencyTicks::UNDEFINED 760004711856                       # Cumulative time (in ticks) in various power states
system.cpu01.dtb.wrAccesses                      7572                       # TLB accesses on write requests
system.cpu01.dtb.wrMisses                          35                       # TLB misses on write requests
system.cpu01.fetch.Branches                 226441877                       # Number of branches that fetch encountered
system.cpu01.fetch.CacheLines                   23052                       # Number of cache lines fetched
system.cpu01.fetch.Cycles                  2222315760                       # Number of cycles fetch has run and was not squashing or blocked
system.cpu01.fetch.IcacheSquashes                 529                       # Number of outstanding Icache misses that were squashed
system.cpu01.fetch.IcacheWaitRetryStallCycles          181                       # Number of stall cycles due to full MSHR
system.cpu01.fetch.Insts                   1010922521                       # Number of instructions fetch has processed
system.cpu01.fetch.ItlbSquashes                     1                       # Number of outstanding ITLB misses that were squashed
system.cpu01.fetch.MiscStallCycles               9386                       # Number of cycles fetch has spent waiting on interrupts, or bad addresses, or out of MSHRs
system.cpu01.fetch.PendingTrapStallCycles         2459                       # Number of stall cycles due to pending traps
system.cpu01.fetch.SquashCycles                246062                       # Number of cycles fetch has spent squashing
system.cpu01.fetch.TlbCycles                       15                       # Number of cycles fetch has spent waiting for tlb
system.cpu01.fetch.branchRate                0.101887                       # Number of branch fetches per cycle
system.cpu01.fetch.icacheStallCycles            30727                       # Number of cycles fetch is stalled on an Icache miss
system.cpu01.fetch.predictedBranches        113314965                       # Number of branches that fetch has predicted taken
system.cpu01.fetch.rate                      0.454862                       # Number of inst fetches per cycle
system.cpu01.fetch.rateDist::samples       2222481559                       # Number of instructions fetched each cycle (Total)
system.cpu01.fetch.rateDist::mean            2.110660                       # Number of instructions fetched each cycle (Total)
system.cpu01.fetch.rateDist::stdev           3.378984                       # Number of instructions fetched each cycle (Total)
system.cpu01.fetch.rateDist::underflows             0      0.00%      0.00% # Number of instructions fetched each cycle (Total)
system.cpu01.fetch.rateDist::0             1551501568     69.81%     69.81% # Number of instructions fetched each cycle (Total)
system.cpu01.fetch.rateDist::1                 280688      0.01%     69.82% # Number of instructions fetched each cycle (Total)
system.cpu01.fetch.rateDist::2               55370968      2.49%     72.31% # Number of instructions fetched each cycle (Total)
system.cpu01.fetch.rateDist::3                1815020      0.08%     72.40% # Number of instructions fetched each cycle (Total)
system.cpu01.fetch.rateDist::4               55502569      2.50%     74.89% # Number of instructions fetched each cycle (Total)
system.cpu01.fetch.rateDist::5                 299432      0.01%     74.91% # Number of instructions fetched each cycle (Total)
system.cpu01.fetch.rateDist::6               55224485      2.48%     77.39% # Number of instructions fetched each cycle (Total)
system.cpu01.fetch.rateDist::7                 313951      0.01%     77.40% # Number of instructions fetched each cycle (Total)
system.cpu01.fetch.rateDist::8              502172878     22.60%    100.00% # Number of instructions fetched each cycle (Total)
system.cpu01.fetch.rateDist::overflows              0      0.00%    100.00% # Number of instructions fetched each cycle (Total)
system.cpu01.fetch.rateDist::min_value              0                       # Number of instructions fetched each cycle (Total)
system.cpu01.fetch.rateDist::max_value              8                       # Number of instructions fetched each cycle (Total)
system.cpu01.fetch.rateDist::total         2222481559                       # Number of instructions fetched each cycle (Total)
system.cpu01.fp_regfile_reads                      10                       # number of floating regfile reads
system.cpu01.fp_regfile_writes                     65                       # number of floating regfile writes
system.cpu01.idleCycles                          2503                       # Total number of cycles that the CPU has spent unscheduled due to idling
system.cpu01.iew.branchMispredicts             125405                       # Number of branch mispredicts detected at execute
system.cpu01.iew.exec_branches              225736821                       # Number of branches executed
system.cpu01.iew.exec_nop                           0                       # number of nop insts executed
system.cpu01.iew.exec_rate                   2.105169                       # Inst execution rate
system.cpu01.iew.exec_refs                    2015206                       # number of memory reference insts executed
system.cpu01.iew.exec_stores                     7572                       # Number of stores executed
system.cpu01.iew.exec_swp                           0                       # number of swp insts executed
system.cpu01.iew.iewBlockCycles               1083485                       # Number of cycles IEW is blocking
system.cpu01.iew.iewDispLoadInsts             1977575                       # Number of dispatched load instructions
system.cpu01.iew.iewDispNonSpecInsts              111                       # Number of dispatched non-speculative instructions
system.cpu01.iew.iewDispSquashedInsts            1974                       # Number of squashed instructions skipped by dispatch
system.cpu01.iew.iewDispStoreInsts              15394                       # Number of dispatched store instructions
system.cpu01.iew.iewDispatchedInsts        4685224466                       # Number of instructions dispatched to IQ
system.cpu01.iew.iewExecLoadInsts             2007634                       # Number of load instructions executed
system.cpu01.iew.iewExecSquashedInsts           54306                       # Number of squashed instructions skipped in execute
system.cpu01.iew.iewExecutedInsts          4678704888                       # Number of executed instructions
system.cpu01.iew.iewIQFullEvents                  207                       # Number of times the IQ has become full, causing a stall
system.cpu01.iew.iewIdleCycles                      0                       # Number of cycles IEW is idle
system.cpu01.iew.iewLSQFullEvents                   0                       # Number of times the LSQ has become full, causing a stall
system.cpu01.iew.iewSquashCycles               123031                       # Number of cycles IEW is squashing
system.cpu01.iew.iewUnblockCycles                 249                       # Number of cycles IEW is unblocking
system.cpu01.iew.lsq.thread0.blockedLoads            0                       # Number of blocked loads due to partial load-store forwarding
system.cpu01.iew.lsq.thread0.cacheBlocked        11702                       # Number of times an access to memory failed due to the cache being blocked
system.cpu01.iew.lsq.thread0.forwLoads           1236                       # Number of loads that had data forwarded from stores
system.cpu01.iew.lsq.thread0.ignoredResponses            1                       # Number of memory responses ignored because the instruction is squashed
system.cpu01.iew.lsq.thread0.invAddrLoads            0                       # Number of loads ignored due to an invalid address
system.cpu01.iew.lsq.thread0.invAddrSwpfs            0                       # Number of software prefetches ignored due to an invalid address
system.cpu01.iew.lsq.thread0.memOrderViolation            2                       # Number of memory ordering violations
system.cpu01.iew.lsq.thread0.rescheduledLoads            0                       # Number of loads that were rescheduled
system.cpu01.iew.lsq.thread0.squashedLoads        28901                       # Number of loads squashed
system.cpu01.iew.lsq.thread0.squashedStores        11217                       # Number of stores squashed
system.cpu01.iew.memOrderViolationEvents            2                       # Number of memory order violations
system.cpu01.iew.predictedNotTakenIncorrect        75227                       # Number of branches that were predicted not taken incorrectly
system.cpu01.iew.predictedTakenIncorrect        50178                       # Number of branches that were predicted taken incorrectly
system.cpu01.iew.wb_consumers             12525117383                       # num instructions consuming a value
system.cpu01.iew.wb_count                  4678656084                       # cumulative count of insts written-back
system.cpu01.iew.wb_fanout                   0.351014                       # average fanout of values written-back
system.cpu01.iew.wb_producers              4396492657                       # num instructions producing a value
system.cpu01.iew.wb_rate                     2.105147                       # insts written-back per cycle
system.cpu01.iew.wb_sent                   4678658273                       # cumulative count of insts sent to commit
system.cpu01.int_regfile_reads            11221349082                       # number of integer regfile reads
system.cpu01.int_regfile_writes            6005319361                       # number of integer regfile writes
system.cpu01.interrupts.pwrStateResidencyTicks::UNDEFINED 760004711856                       # Cumulative time (in ticks) in various power states
system.cpu01.ipc                             0.453392                       # IPC: Instructions Per Cycle
system.cpu01.ipc_total                       0.453392                       # IPC: Total IPC of All Threads
system.cpu01.iq.FU_type_0::No_OpClass       110969063      2.37%      2.37% # Type of FU issued
system.cpu01.iq.FU_type_0::IntAlu          3789385976     80.99%     83.36% # Type of FU issued
system.cpu01.iq.FU_type_0::IntMult                  1      0.00%     83.36% # Type of FU issued
system.cpu01.iq.FU_type_0::IntDiv           776383994     16.59%     99.96% # Type of FU issued
system.cpu01.iq.FU_type_0::FloatAdd                 1      0.00%     99.96% # Type of FU issued
system.cpu01.iq.FU_type_0::FloatCmp                 0      0.00%     99.96% # Type of FU issued
system.cpu01.iq.FU_type_0::FloatCvt                 0      0.00%     99.96% # Type of FU issued
system.cpu01.iq.FU_type_0::FloatMult                0      0.00%     99.96% # Type of FU issued
system.cpu01.iq.FU_type_0::FloatMultAcc             0      0.00%     99.96% # Type of FU issued
system.cpu01.iq.FU_type_0::FloatDiv                 0      0.00%     99.96% # Type of FU issued
system.cpu01.iq.FU_type_0::FloatMisc                0      0.00%     99.96% # Type of FU issued
system.cpu01.iq.FU_type_0::FloatSqrt                0      0.00%     99.96% # Type of FU issued
system.cpu01.iq.FU_type_0::SimdAdd                  0      0.00%     99.96% # Type of FU issued
system.cpu01.iq.FU_type_0::SimdAddAcc               0      0.00%     99.96% # Type of FU issued
system.cpu01.iq.FU_type_0::SimdAlu                  0      0.00%     99.96% # Type of FU issued
system.cpu01.iq.FU_type_0::SimdCmp                  0      0.00%     99.96% # Type of FU issued
system.cpu01.iq.FU_type_0::SimdCvt                  0      0.00%     99.96% # Type of FU issued
system.cpu01.iq.FU_type_0::SimdMisc                 1      0.00%     99.96% # Type of FU issued
system.cpu01.iq.FU_type_0::SimdMult                 0      0.00%     99.96% # Type of FU issued
system.cpu01.iq.FU_type_0::SimdMultAcc              0      0.00%     99.96% # Type of FU issued
system.cpu01.iq.FU_type_0::SimdShift                0      0.00%     99.96% # Type of FU issued
system.cpu01.iq.FU_type_0::SimdShiftAcc             0      0.00%     99.96% # Type of FU issued
system.cpu01.iq.FU_type_0::SimdDiv                  0      0.00%     99.96% # Type of FU issued
system.cpu01.iq.FU_type_0::SimdSqrt                 0      0.00%     99.96% # Type of FU issued
system.cpu01.iq.FU_type_0::SimdFloatAdd             0      0.00%     99.96% # Type of FU issued
system.cpu01.iq.FU_type_0::SimdFloatAlu             0      0.00%     99.96% # Type of FU issued
system.cpu01.iq.FU_type_0::SimdFloatCmp             0      0.00%     99.96% # Type of FU issued
system.cpu01.iq.FU_type_0::SimdFloatCvt             0      0.00%     99.96% # Type of FU issued
system.cpu01.iq.FU_type_0::SimdFloatDiv             0      0.00%     99.96% # Type of FU issued
system.cpu01.iq.FU_type_0::SimdFloatMisc            0      0.00%     99.96% # Type of FU issued
system.cpu01.iq.FU_type_0::SimdFloatMult            0      0.00%     99.96% # Type of FU issued
system.cpu01.iq.FU_type_0::SimdFloatMultAcc            0      0.00%     99.96% # Type of FU issued
system.cpu01.iq.FU_type_0::SimdFloatSqrt            0      0.00%     99.96% # Type of FU issued
system.cpu01.iq.FU_type_0::SimdReduceAdd            0      0.00%     99.96% # Type of FU issued
system.cpu01.iq.FU_type_0::SimdReduceAlu            0      0.00%     99.96% # Type of FU issued
system.cpu01.iq.FU_type_0::SimdReduceCmp            0      0.00%     99.96% # Type of FU issued
system.cpu01.iq.FU_type_0::SimdFloatReduceAdd            0      0.00%     99.96% # Type of FU issued
system.cpu01.iq.FU_type_0::SimdFloatReduceCmp            0      0.00%     99.96% # Type of FU issued
system.cpu01.iq.FU_type_0::SimdAes                  0      0.00%     99.96% # Type of FU issued
system.cpu01.iq.FU_type_0::SimdAesMix               0      0.00%     99.96% # Type of FU issued
system.cpu01.iq.FU_type_0::SimdSha1Hash             0      0.00%     99.96% # Type of FU issued
system.cpu01.iq.FU_type_0::SimdSha1Hash2            0      0.00%     99.96% # Type of FU issued
system.cpu01.iq.FU_type_0::SimdSha256Hash            0      0.00%     99.96% # Type of FU issued
system.cpu01.iq.FU_type_0::SimdSha256Hash2            0      0.00%     99.96% # Type of FU issued
system.cpu01.iq.FU_type_0::SimdShaSigma2            0      0.00%     99.96% # Type of FU issued
system.cpu01.iq.FU_type_0::SimdShaSigma3            0      0.00%     99.96% # Type of FU issued
system.cpu01.iq.FU_type_0::SimdPredAlu              0      0.00%     99.96% # Type of FU issued
system.cpu01.iq.FU_type_0::MemRead            2011739      0.04%    100.00% # Type of FU issued
system.cpu01.iq.FU_type_0::MemWrite              8395      0.00%    100.00% # Type of FU issued
system.cpu01.iq.FU_type_0::FloatMemRead            20      0.00%    100.00% # Type of FU issued
system.cpu01.iq.FU_type_0::FloatMemWrite            9      0.00%    100.00% # Type of FU issued
system.cpu01.iq.FU_type_0::IprAccess                0      0.00%    100.00% # Type of FU issued
system.cpu01.iq.FU_type_0::InstPrefetch             0      0.00%    100.00% # Type of FU issued
system.cpu01.iq.FU_type_0::total           4678759199                       # Type of FU issued
system.cpu01.iq.fp_alu_accesses                    35                       # Number of floating point alu accesses
system.cpu01.iq.fp_inst_queue_reads                66                       # Number of floating instruction queue reads
system.cpu01.iq.fp_inst_queue_wakeup_accesses           19                       # Number of floating instruction queue wakeup accesses
system.cpu01.iq.fp_inst_queue_writes               59                       # Number of floating instruction queue writes
system.cpu01.iq.fu_busy_cnt                     57059                       # FU busy when requested
system.cpu01.iq.fu_busy_rate                 0.000012                       # FU busy rate (busy events/executed inst)
system.cpu01.iq.fu_full::No_OpClass                 0      0.00%      0.00% # attempts to use FU when none available
system.cpu01.iq.fu_full::IntAlu                 49892     87.44%     87.44% # attempts to use FU when none available
system.cpu01.iq.fu_full::IntMult                    0      0.00%     87.44% # attempts to use FU when none available
system.cpu01.iq.fu_full::IntDiv                     0      0.00%     87.44% # attempts to use FU when none available
system.cpu01.iq.fu_full::FloatAdd                   0      0.00%     87.44% # attempts to use FU when none available
system.cpu01.iq.fu_full::FloatCmp                   0      0.00%     87.44% # attempts to use FU when none available
system.cpu01.iq.fu_full::FloatCvt                   0      0.00%     87.44% # attempts to use FU when none available
system.cpu01.iq.fu_full::FloatMult                  0      0.00%     87.44% # attempts to use FU when none available
system.cpu01.iq.fu_full::FloatMultAcc               0      0.00%     87.44% # attempts to use FU when none available
system.cpu01.iq.fu_full::FloatDiv                   0      0.00%     87.44% # attempts to use FU when none available
system.cpu01.iq.fu_full::FloatMisc                  0      0.00%     87.44% # attempts to use FU when none available
system.cpu01.iq.fu_full::FloatSqrt                  0      0.00%     87.44% # attempts to use FU when none available
system.cpu01.iq.fu_full::SimdAdd                    0      0.00%     87.44% # attempts to use FU when none available
system.cpu01.iq.fu_full::SimdAddAcc                 0      0.00%     87.44% # attempts to use FU when none available
system.cpu01.iq.fu_full::SimdAlu                    0      0.00%     87.44% # attempts to use FU when none available
system.cpu01.iq.fu_full::SimdCmp                    0      0.00%     87.44% # attempts to use FU when none available
system.cpu01.iq.fu_full::SimdCvt                    0      0.00%     87.44% # attempts to use FU when none available
system.cpu01.iq.fu_full::SimdMisc                   0      0.00%     87.44% # attempts to use FU when none available
system.cpu01.iq.fu_full::SimdMult                   0      0.00%     87.44% # attempts to use FU when none available
system.cpu01.iq.fu_full::SimdMultAcc                0      0.00%     87.44% # attempts to use FU when none available
system.cpu01.iq.fu_full::SimdShift                  0      0.00%     87.44% # attempts to use FU when none available
system.cpu01.iq.fu_full::SimdShiftAcc               0      0.00%     87.44% # attempts to use FU when none available
system.cpu01.iq.fu_full::SimdDiv                    0      0.00%     87.44% # attempts to use FU when none available
system.cpu01.iq.fu_full::SimdSqrt                   0      0.00%     87.44% # attempts to use FU when none available
system.cpu01.iq.fu_full::SimdFloatAdd               0      0.00%     87.44% # attempts to use FU when none available
system.cpu01.iq.fu_full::SimdFloatAlu               0      0.00%     87.44% # attempts to use FU when none available
system.cpu01.iq.fu_full::SimdFloatCmp               0      0.00%     87.44% # attempts to use FU when none available
system.cpu01.iq.fu_full::SimdFloatCvt               0      0.00%     87.44% # attempts to use FU when none available
system.cpu01.iq.fu_full::SimdFloatDiv               0      0.00%     87.44% # attempts to use FU when none available
system.cpu01.iq.fu_full::SimdFloatMisc              0      0.00%     87.44% # attempts to use FU when none available
system.cpu01.iq.fu_full::SimdFloatMult              0      0.00%     87.44% # attempts to use FU when none available
system.cpu01.iq.fu_full::SimdFloatMultAcc            0      0.00%     87.44% # attempts to use FU when none available
system.cpu01.iq.fu_full::SimdFloatSqrt              0      0.00%     87.44% # attempts to use FU when none available
system.cpu01.iq.fu_full::SimdReduceAdd              0      0.00%     87.44% # attempts to use FU when none available
system.cpu01.iq.fu_full::SimdReduceAlu              0      0.00%     87.44% # attempts to use FU when none available
system.cpu01.iq.fu_full::SimdReduceCmp              0      0.00%     87.44% # attempts to use FU when none available
system.cpu01.iq.fu_full::SimdFloatReduceAdd            0      0.00%     87.44% # attempts to use FU when none available
system.cpu01.iq.fu_full::SimdFloatReduceCmp            0      0.00%     87.44% # attempts to use FU when none available
[...]
system.ruby.network.int_links44.network_link.pwrStateResidencyTicks::UNDEFINED 760021786098                       # Cumulative time (in ticks) in various power states
system.ruby.network.int_links45.credit_link.pwrStateResidencyTicks::UNDEFINED 760021786098                       # Cumulative time (in ticks) in various power states
system.ruby.network.int_links45.network_link.pwrStateResidencyTicks::UNDEFINED 760021786098                       # Cumulative time (in ticks) in various power states
system.ruby.network.int_links46.credit_link.pwrStateResidencyTicks::UNDEFINED 760021786098                       # Cumulative time (in ticks) in various power states
system.ruby.network.int_links46.network_link.pwrStateResidencyTicks::UNDEFINED 760021786098                       # Cumulative time (in ticks) in various power states
system.ruby.network.int_links47.credit_link.pwrStateResidencyTicks::UNDEFINED 760021786098                       # Cumulative time (in ticks) in various power states
system.ruby.network.int_links47.network_link.pwrStateResidencyTicks::UNDEFINED 760021786098                       # Cumulative time (in ticks) in various power states
system.ruby.network.netifs00.pwrStateResidencyTicks::UNDEFINED 760021786098                       # Cumulative time (in ticks) in various power states
system.ruby.network.netifs01.pwrStateResidencyTicks::UNDEFINED 760021786098                       # Cumulative time (in ticks) in various power states
system.ruby.network.netifs02.pwrStateResidencyTicks::UNDEFINED 760021786098                       # Cumulative time (in ticks) in various power states
system.ruby.network.netifs03.pwrStateResidencyTicks::UNDEFINED 760021786098                       # Cumulative time (in ticks) in various power states
system.ruby.network.netifs04.pwrStateResidencyTicks::UNDEFINED 760021786098                       # Cumulative time (in ticks) in various power states
system.ruby.network.netifs05.pwrStateResidencyTicks::UNDEFINED 760021786098                       # Cumulative time (in ticks) in various power states
system.ruby.network.netifs06.pwrStateResidencyTicks::UNDEFINED 760021786098                       # Cumulative time (in ticks) in various power states
system.ruby.network.netifs07.pwrStateResidencyTicks::UNDEFINED 760021786098                       # Cumulative time (in ticks) in various power states
system.ruby.network.netifs08.pwrStateResidencyTicks::UNDEFINED 760021786098                       # Cumulative time (in ticks) in various power states
system.ruby.network.netifs09.pwrStateResidencyTicks::UNDEFINED 760021786098                       # Cumulative time (in ticks) in various power states
system.ruby.network.netifs10.pwrStateResidencyTicks::UNDEFINED 760021786098                       # Cumulative time (in ticks) in various power states
system.ruby.network.netifs11.pwrStateResidencyTicks::UNDEFINED 760021786098                       # Cumulative time (in ticks) in various power states
system.ruby.network.netifs12.pwrStateResidencyTicks::UNDEFINED 760021786098                       # Cumulative time (in ticks) in various power states
system.ruby.network.netifs13.pwrStateResidencyTicks::UNDEFINED 760021786098                       # Cumulative time (in ticks) in various power states
system.ruby.network.netifs14.pwrStateResidencyTicks::UNDEFINED 760021786098                       # Cumulative time (in ticks) in various power states
system.ruby.network.netifs15.pwrStateResidencyTicks::UNDEFINED 760021786098                       # Cumulative time (in ticks) in various power states
system.ruby.network.netifs16.pwrStateResidencyTicks::UNDEFINED 760021786098                       # Cumulative time (in ticks) in various power states
system.ruby.network.netifs17.pwrStateResidencyTicks::UNDEFINED 760021786098                       # Cumulative time (in ticks) in various power states
system.ruby.network.netifs18.pwrStateResidencyTicks::UNDEFINED 760021786098                       # Cumulative time (in ticks) in various power states
system.ruby.network.netifs19.pwrStateResidencyTicks::UNDEFINED 760021786098                       # Cumulative time (in ticks) in various power states
system.ruby.network.netifs20.pwrStateResidencyTicks::UNDEFINED 760021786098                       # Cumulative time (in ticks) in various power states
system.ruby.network.netifs21.pwrStateResidencyTicks::UNDEFINED 760021786098                       # Cumulative time (in ticks) in various power states
system.ruby.network.netifs22.pwrStateResidencyTicks::UNDEFINED 760021786098                       # Cumulative time (in ticks) in various power states
system.ruby.network.netifs23.pwrStateResidencyTicks::UNDEFINED 760021786098                       # Cumulative time (in ticks) in various power states
system.ruby.network.netifs24.pwrStateResidencyTicks::UNDEFINED 760021786098                       # Cumulative time (in ticks) in various power states
system.ruby.network.netifs25.pwrStateResidencyTicks::UNDEFINED 760021786098                       # Cumulative time (in ticks) in various power states
system.ruby.network.netifs26.pwrStateResidencyTicks::UNDEFINED 760021786098                       # Cumulative time (in ticks) in various power states
system.ruby.network.netifs27.pwrStateResidencyTicks::UNDEFINED 760021786098                       # Cumulative time (in ticks) in various power states
system.ruby.network.netifs28.pwrStateResidencyTicks::UNDEFINED 760021786098                       # Cumulative time (in ticks) in various power states
system.ruby.network.netifs29.pwrStateResidencyTicks::UNDEFINED 760021786098                       # Cumulative time (in ticks) in various power states
system.ruby.network.netifs30.pwrStateResidencyTicks::UNDEFINED 760021786098                       # Cumulative time (in ticks) in various power states
system.ruby.network.netifs31.pwrStateResidencyTicks::UNDEFINED 760021786098                       # Cumulative time (in ticks) in various power states
system.ruby.network.netifs32.pwrStateResidencyTicks::UNDEFINED 760021786098                       # Cumulative time (in ticks) in various power states
system.ruby.network.netifs33.pwrStateResidencyTicks::UNDEFINED 760021786098                       # Cumulative time (in ticks) in various power states
system.ruby.network.netifs34.pwrStateResidencyTicks::UNDEFINED 760021786098                       # Cumulative time (in ticks) in various power states
system.ruby.network.netifs35.pwrStateResidencyTicks::UNDEFINED 760021786098                       # Cumulative time (in ticks) in various power states
system.ruby.network.netifs36.pwrStateResidencyTicks::UNDEFINED 760021786098                       # Cumulative time (in ticks) in various power states
system.ruby.network.netifs37.pwrStateResidencyTicks::UNDEFINED 760021786098                       # Cumulative time (in ticks) in various power states
system.ruby.network.netifs38.pwrStateResidencyTicks::UNDEFINED 760021786098                       # Cumulative time (in ticks) in various power states
system.ruby.network.netifs39.pwrStateResidencyTicks::UNDEFINED 760021786098                       # Cumulative time (in ticks) in various power states
system.ruby.network.netifs40.pwrStateResidencyTicks::UNDEFINED 760021786098                       # Cumulative time (in ticks) in various power states
system.ruby.network.netifs41.pwrStateResidencyTicks::UNDEFINED 760021786098                       # Cumulative time (in ticks) in various power states
system.ruby.network.netifs42.pwrStateResidencyTicks::UNDEFINED 760021786098                       # Cumulative time (in ticks) in various power states
system.ruby.network.netifs43.pwrStateResidencyTicks::UNDEFINED 760021786098                       # Cumulative time (in ticks) in various power states
system.ruby.network.netifs44.pwrStateResidencyTicks::UNDEFINED 760021786098                       # Cumulative time (in ticks) in various power states
system.ruby.network.netifs45.pwrStateResidencyTicks::UNDEFINED 760021786098                       # Cumulative time (in ticks) in various power states
system.ruby.network.netifs46.pwrStateResidencyTicks::UNDEFINED 760021786098                       # Cumulative time (in ticks) in various power states
system.ruby.network.netifs47.pwrStateResidencyTicks::UNDEFINED 760021786098                       # Cumulative time (in ticks) in various power states
system.ruby.network.packet_network_latency |   117960616                       |       20849                       |   221893942                      
system.ruby.network.packet_queueing_latency |    19783106                       |        4222                       |    96634176                      
system.ruby.network.packets_injected     |    13930684     37.46%     37.46% |        4222      0.01%     37.47% |    23256691     62.53%    100.00%
system.ruby.network.packets_injected::total     37191597                      
system.ruby.network.packets_received     |    13930684     37.46%     37.46% |        4222      0.01%     37.47% |    23256692     62.53%    100.00%
system.ruby.network.packets_received::total     37191598                      
system.ruby.network.pwrStateResidencyTicks::UNDEFINED 760021786098                       # Cumulative time (in ticks) in various power states
system.ruby.network.routers00.buffer_reads     10361972                      
system.ruby.network.routers00.buffer_writes     10361972                      
system.ruby.network.routers00.crossbar_activity      5183206                      
system.ruby.network.routers00.pwrStateResidencyTicks::UNDEFINED 760021786098                       # Cumulative time (in ticks) in various power states
system.ruby.network.routers00.sw_input_arbiter_activity      5191119                      
system.ruby.network.routers00.sw_output_arbiter_activity      5183206                      
system.ruby.network.routers01.buffer_reads     16850006                      
system.ruby.network.routers01.buffer_writes     16850006                      
system.ruby.network.routers01.crossbar_activity      8426103                      
system.ruby.network.routers01.pwrStateResidencyTicks::UNDEFINED 760021786098                       # Cumulative time (in ticks) in various power states
system.ruby.network.routers01.sw_input_arbiter_activity      8489045                      
system.ruby.network.routers01.sw_output_arbiter_activity      8426103                      
system.ruby.network.routers02.buffer_reads     23985640                      
system.ruby.network.routers02.buffer_writes     23985640                      
system.ruby.network.routers02.crossbar_activity     11993567                      
system.ruby.network.routers02.pwrStateResidencyTicks::UNDEFINED 760021786098                       # Cumulative time (in ticks) in various power states
system.ruby.network.routers02.sw_input_arbiter_activity     12164308                      
system.ruby.network.routers02.sw_output_arbiter_activity     11993567                      
system.ruby.network.routers03.buffer_reads     12445622                      
system.ruby.network.routers03.buffer_writes     12445622                      
system.ruby.network.routers03.crossbar_activity      6223224                      
system.ruby.network.routers03.pwrStateResidencyTicks::UNDEFINED 760021786098                       # Cumulative time (in ticks) in various power states
system.ruby.network.routers03.sw_input_arbiter_activity      6243519                      
system.ruby.network.routers03.sw_output_arbiter_activity      6223224                      
system.ruby.network.routers04.buffer_reads     16949469                      
system.ruby.network.routers04.buffer_writes     16949469                      
system.ruby.network.routers04.crossbar_activity      8475717                      
system.ruby.network.routers04.pwrStateResidencyTicks::UNDEFINED 760021786098                       # Cumulative time (in ticks) in various power states
system.ruby.network.routers04.sw_input_arbiter_activity      8523373                      
system.ruby.network.routers04.sw_output_arbiter_activity      8475717                      
system.ruby.network.routers05.buffer_reads     29400375                      
system.ruby.network.routers05.buffer_writes     29400375                      
system.ruby.network.routers05.crossbar_activity     14700560                      
system.ruby.network.routers05.pwrStateResidencyTicks::UNDEFINED 760021786098                       # Cumulative time (in ticks) in various power states
system.ruby.network.routers05.sw_input_arbiter_activity     14973285                      
system.ruby.network.routers05.sw_output_arbiter_activity     14700560                      
system.ruby.network.routers06.buffer_reads     27648897                      
system.ruby.network.routers06.buffer_writes     27648897                      
system.ruby.network.routers06.crossbar_activity     13824755                      
system.ruby.network.routers06.pwrStateResidencyTicks::UNDEFINED 760021786098                       # Cumulative time (in ticks) in various power states
system.ruby.network.routers06.sw_input_arbiter_activity     14020472                      
system.ruby.network.routers06.sw_output_arbiter_activity     13824755                      
system.ruby.network.routers07.buffer_reads     21447860                      
system.ruby.network.routers07.buffer_writes     21447860                      
system.ruby.network.routers07.crossbar_activity     10724238                      
system.ruby.network.routers07.pwrStateResidencyTicks::UNDEFINED 760021786098                       # Cumulative time (in ticks) in various power states
system.ruby.network.routers07.sw_input_arbiter_activity     10879831                      
system.ruby.network.routers07.sw_output_arbiter_activity     10724238                      
system.ruby.network.routers08.buffer_reads     24350405                      
system.ruby.network.routers08.buffer_writes     24350405                      
system.ruby.network.routers08.crossbar_activity     12175905                      
system.ruby.network.routers08.pwrStateResidencyTicks::UNDEFINED 760021786098                       # Cumulative time (in ticks) in various power states
system.ruby.network.routers08.sw_input_arbiter_activity     12313812                      
system.ruby.network.routers08.sw_output_arbiter_activity     12175905                      
system.ruby.network.routers09.buffer_reads     38353345                      
system.ruby.network.routers09.buffer_writes     38353345                      
system.ruby.network.routers09.crossbar_activity     19177011                      
system.ruby.network.routers09.pwrStateResidencyTicks::UNDEFINED 760021786098                       # Cumulative time (in ticks) in various power states
system.ruby.network.routers09.sw_input_arbiter_activity     19482636                      
system.ruby.network.routers09.sw_output_arbiter_activity     19177011                      
system.ruby.network.routers10.buffer_reads     42884991                      
system.ruby.network.routers10.buffer_writes     42884991                      
system.ruby.network.routers10.crossbar_activity     21442799                      
system.ruby.network.routers10.pwrStateResidencyTicks::UNDEFINED 760021786098                       # Cumulative time (in ticks) in various power states
system.ruby.network.routers10.sw_input_arbiter_activity     21819154                      
system.ruby.network.routers10.sw_output_arbiter_activity     21442799                      
system.ruby.network.routers11.buffer_reads     35743898                      
system.ruby.network.routers11.buffer_writes     35743898                      
system.ruby.network.routers11.crossbar_activity     17872239                      
system.ruby.network.routers11.pwrStateResidencyTicks::UNDEFINED 760021786098                       # Cumulative time (in ticks) in various power states
system.ruby.network.routers11.sw_input_arbiter_activity     18072461                      
system.ruby.network.routers11.sw_output_arbiter_activity     17872239                      
system.ruby.network.routers12.buffer_reads     27426132                      
system.ruby.network.routers12.buffer_writes     27426132                      
system.ruby.network.routers12.crossbar_activity     13713515                      
system.ruby.network.routers12.pwrStateResidencyTicks::UNDEFINED 760021786098                       # Cumulative time (in ticks) in various power states
system.ruby.network.routers12.sw_input_arbiter_activity     13859375                      
system.ruby.network.routers12.sw_output_arbiter_activity     13713515                      
system.ruby.network.routers13.buffer_reads     40603053                      
system.ruby.network.routers13.buffer_writes     40603053                      
system.ruby.network.routers13.crossbar_activity     20301865                      
system.ruby.network.routers13.pwrStateResidencyTicks::UNDEFINED 760021786098                       # Cumulative time (in ticks) in various power states
system.ruby.network.routers13.sw_input_arbiter_activity     20743847                      
system.ruby.network.routers13.sw_output_arbiter_activity     20301865                      
system.ruby.network.routers14.buffer_reads     43383168                      
system.ruby.network.routers14.buffer_writes     43383168                      
system.ruby.network.routers14.crossbar_activity     21691855                      
system.ruby.network.routers14.pwrStateResidencyTicks::UNDEFINED 760021786098                       # Cumulative time (in ticks) in various power states
system.ruby.network.routers14.sw_input_arbiter_activity     22154592                      
system.ruby.network.routers14.sw_output_arbiter_activity     21691855                      
system.ruby.network.routers15.buffer_reads     32779119                      
system.ruby.network.routers15.buffer_writes     32779119                      
system.ruby.network.routers15.crossbar_activity     16389767                      
system.ruby.network.routers15.pwrStateResidencyTicks::UNDEFINED 760021786098                       # Cumulative time (in ticks) in various power states
system.ruby.network.routers15.sw_input_arbiter_activity     16560832                      
system.ruby.network.routers15.sw_output_arbiter_activity     16389767                      
system.ruby.outstanding_req_hist_seqr::bucket_size            1                      
system.ruby.outstanding_req_hist_seqr::max_bucket            9                      
system.ruby.outstanding_req_hist_seqr::samples    281635070                      
system.ruby.outstanding_req_hist_seqr::mean     1.086080                      
system.ruby.outstanding_req_hist_seqr::gmean     1.061255                      
system.ruby.outstanding_req_hist_seqr::stdev     0.283294                      
system.ruby.outstanding_req_hist_seqr    |           0      0.00%      0.00% |   257593287     91.46%     91.46% |    23859128      8.47%     99.94% |      166340      0.06%     99.99% |       14281      0.01%    100.00% |        1680      0.00%    100.00% |         294      0.00%    100.00% |          48      0.00%    100.00% |          12      0.00%    100.00% |           0      0.00%    100.00%
system.ruby.outstanding_req_hist_seqr::total    281635070                      
system.ruby.pwrStateResidencyTicks::UNDEFINED 760021786098                       # Cumulative time (in ticks) in various power states
system.sys_port_proxy.pwrStateResidencyTicks::UNDEFINED 760021786098                       # Cumulative time (in ticks) in various power states
system.voltage_domain.voltage                       1                       # Voltage in Volts

---------- End Simulation Statistics   ----------
