
---------- Begin Simulation Statistics ----------
final_tick                               1727408689173                       # Number of ticks from beginning of simulation (restored from checkpoints and never reset)
host_inst_rate                                 202572                       # Simulator instruction rate (inst/s)
host_mem_usage                                3643228                       # Number of bytes of host memory used
host_op_rate                                   380988                       # Simulator op (including micro ops) rate (op/s)
host_seconds                                 23297.93                       # Real time elapsed on the host
host_tick_rate                               39185473                       # Simulator tick rate (ticks/s)
sim_freq                                 1000000000000                       # Frequency of simulated ticks
sim_insts                                  4719516754                       # Number of instructions simulated
sim_ops                                    8876227447                       # Number of ops (including micro ops) simulated
sim_seconds                                  0.912940                       # Number of seconds simulated
sim_ticks                                912940479666                       # Number of ticks simulated
system.clk_domain.clock                          1000                       # Clock period in ticks
system.cpu00.apic_clk_domain.clock               5328                       # Clock period in ticks
system.cpu00.branchPred.BTBCorrect                  0                       # Number of correct BTB predictions (this stat may not work properly.
system.cpu00.branchPred.BTBHitPct            0.000000                       # BTB Hit Percentage
system.cpu00.branchPred.BTBHits                     0                       # Number of BTB hits
system.cpu00.branchPred.BTBLookups          148563296                       # Number of BTB lookups
system.cpu00.branchPred.RASInCorrect            36308                       # Number of incorrect RAS predictions.
system.cpu00.branchPred.condIncorrect         7574399                       # Number of conditional branches incorrect
system.cpu00.branchPred.condPredicted       249690068                       # Number of conditional branches predicted
system.cpu00.branchPred.indirectHits        105334835                       # Number of indirect target hits.
system.cpu00.branchPred.indirectLookups     148563296                       # Number of indirect predictor lookups.
system.cpu00.branchPred.indirectMisses       43228461                       # Number of indirect misses.
system.cpu00.branchPred.lookups             249690068                       # Number of BP lookups
system.cpu00.branchPred.usedRAS              48490238                       # Number of times the RAS was used to get a target.
system.cpu00.branchPredindirectMispredicted        52850                       # Number of mispredicted indirect branches.
system.cpu00.cc_regfile_reads              1566089470                       # number of cc regfile reads
system.cpu00.cc_regfile_writes              628605193                       # number of cc regfile writes
system.cpu00.commit.amos                            0                       # Number of atomic instructions committed
system.cpu00.commit.branchMispredicts         7574926                       # The number of times a branch was mispredicted
system.cpu00.commit.branches                178225077                       # Number of branches committed
system.cpu00.commit.bw_lim_events           171895273                       # number cycles where commit BW limit reached
system.cpu00.commit.commitNonSpecStalls       3281670                       # The number of times commit has been forced to stall to communicate backwards
system.cpu00.commit.commitSquashedInsts     714831484                       # The number of squashed insts skipped by commit
system.cpu00.commit.committedInsts          886720937                       # Number of instructions committed
system.cpu00.commit.committedOps           2252666332                       # Number of ops (including micro ops) committed
system.cpu00.commit.committed_per_cycle::samples   2651927599                       # Number of insts commited each cycle
system.cpu00.commit.committed_per_cycle::mean     0.849445                       # Number of insts commited each cycle
system.cpu00.commit.committed_per_cycle::stdev     2.119122                       # Number of insts commited each cycle
system.cpu00.commit.committed_per_cycle::underflows            0      0.00%      0.00% # Number of insts commited each cycle
system.cpu00.commit.committed_per_cycle::0   2037387261     76.83%     76.83% # Number of insts commited each cycle
system.cpu00.commit.committed_per_cycle::1    280162554     10.56%     87.39% # Number of insts commited each cycle
system.cpu00.commit.committed_per_cycle::2     33635185      1.27%     88.66% # Number of insts commited each cycle
system.cpu00.commit.committed_per_cycle::3     72074403      2.72%     91.38% # Number of insts commited each cycle
system.cpu00.commit.committed_per_cycle::4      3988537      0.15%     91.53% # Number of insts commited each cycle
system.cpu00.commit.committed_per_cycle::5     19153258      0.72%     92.25% # Number of insts commited each cycle
system.cpu00.commit.committed_per_cycle::6     33290319      1.26%     93.51% # Number of insts commited each cycle
system.cpu00.commit.committed_per_cycle::7       340809      0.01%     93.52% # Number of insts commited each cycle
system.cpu00.commit.committed_per_cycle::8    171895273      6.48%    100.00% # Number of insts commited each cycle
system.cpu00.commit.committed_per_cycle::overflows            0      0.00%    100.00% # Number of insts commited each cycle
system.cpu00.commit.committed_per_cycle::min_value            0                       # Number of insts commited each cycle
system.cpu00.commit.committed_per_cycle::max_value            8                       # Number of insts commited each cycle
system.cpu00.commit.committed_per_cycle::total   2651927599                       # Number of insts commited each cycle
system.cpu00.commit.fp_insts                 17680628                       # Number of committed floating point instructions.
system.cpu00.commit.function_calls           33670678                       # Number of function calls committed.
system.cpu00.commit.int_insts              2223647185                       # Number of committed integer instructions.
system.cpu00.commit.loads                   312224316                       # Number of loads committed
system.cpu00.commit.membars                    103978                       # Number of memory barriers committed
system.cpu00.commit.op_class_0::No_OpClass     26215281      1.16%      1.16% # Class of committed instruction
system.cpu00.commit.op_class_0::IntAlu     1608920386     71.42%     72.59% # Class of committed instruction
system.cpu00.commit.op_class_0::IntMult          8209      0.00%     72.59% # Class of committed instruction
system.cpu00.commit.op_class_0::IntDiv      142618295      6.33%     78.92% # Class of committed instruction
system.cpu00.commit.op_class_0::FloatAdd         8214      0.00%     78.92% # Class of committed instruction
system.cpu00.commit.op_class_0::FloatCmp            0      0.00%     78.92% # Class of committed instruction
system.cpu00.commit.op_class_0::FloatCvt            0      0.00%     78.92% # Class of committed instruction
system.cpu00.commit.op_class_0::FloatMult            0      0.00%     78.92% # Class of committed instruction
system.cpu00.commit.op_class_0::FloatMultAcc            0      0.00%     78.92% # Class of committed instruction
system.cpu00.commit.op_class_0::FloatDiv            0      0.00%     78.92% # Class of committed instruction
system.cpu00.commit.op_class_0::FloatMisc            0      0.00%     78.92% # Class of committed instruction
system.cpu00.commit.op_class_0::FloatSqrt            0      0.00%     78.92% # Class of committed instruction
system.cpu00.commit.op_class_0::SimdAdd             0      0.00%     78.92% # Class of committed instruction
system.cpu00.commit.op_class_0::SimdAddAcc            0      0.00%     78.92% # Class of committed instruction
system.cpu00.commit.op_class_0::SimdAlu       1572878      0.07%     78.99% # Class of committed instruction
system.cpu00.commit.op_class_0::SimdCmp             0      0.00%     78.99% # Class of committed instruction
system.cpu00.commit.op_class_0::SimdCvt        524292      0.02%     79.01% # Class of committed instruction
system.cpu00.commit.op_class_0::SimdMisc        57488      0.00%     79.01% # Class of committed instruction
system.cpu00.commit.op_class_0::SimdMult            0      0.00%     79.01% # Class of committed instruction
system.cpu00.commit.op_class_0::SimdMultAcc            0      0.00%     79.01% # Class of committed instruction
system.cpu00.commit.op_class_0::SimdShift            6      0.00%     79.01% # Class of committed instruction
system.cpu00.commit.op_class_0::SimdShiftAcc            0      0.00%     79.01% # Class of committed instruction
system.cpu00.commit.op_class_0::SimdDiv             0      0.00%     79.01% # Class of committed instruction
system.cpu00.commit.op_class_0::SimdSqrt            0      0.00%     79.01% # Class of committed instruction
system.cpu00.commit.op_class_0::SimdFloatAdd            0      0.00%     79.01% # Class of committed instruction
system.cpu00.commit.op_class_0::SimdFloatAlu            0      0.00%     79.01% # Class of committed instruction
system.cpu00.commit.op_class_0::SimdFloatCmp            0      0.00%     79.01% # Class of committed instruction
system.cpu00.commit.op_class_0::SimdFloatCvt            0      0.00%     79.01% # Class of committed instruction
system.cpu00.commit.op_class_0::SimdFloatDiv            0      0.00%     79.01% # Class of committed instruction
system.cpu00.commit.op_class_0::SimdFloatMisc            0      0.00%     79.01% # Class of committed instruction
system.cpu00.commit.op_class_0::SimdFloatMult            0      0.00%     79.01% # Class of committed instruction
system.cpu00.commit.op_class_0::SimdFloatMultAcc            0      0.00%     79.01% # Class of committed instruction
system.cpu00.commit.op_class_0::SimdFloatSqrt            0      0.00%     79.01% # Class of committed instruction
system.cpu00.commit.op_class_0::SimdReduceAdd            0      0.00%     79.01% # Class of committed instruction
system.cpu00.commit.op_class_0::SimdReduceAlu            0      0.00%     79.01% # Class of committed instruction
system.cpu00.commit.op_class_0::SimdReduceCmp            0      0.00%     79.01% # Class of committed instruction
system.cpu00.commit.op_class_0::SimdFloatReduceAdd            0      0.00%     79.01% # Class of committed instruction
system.cpu00.commit.op_class_0::SimdFloatReduceCmp            0      0.00%     79.01% # Class of committed instruction
system.cpu00.commit.op_class_0::SimdAes             0      0.00%     79.01% # Class of committed instruction
system.cpu00.commit.op_class_0::SimdAesMix            0      0.00%     79.01% # Class of committed instruction
system.cpu00.commit.op_class_0::SimdSha1Hash            0      0.00%     79.01% # Class of committed instruction
system.cpu00.commit.op_class_0::SimdSha1Hash2            0      0.00%     79.01% # Class of committed instruction
system.cpu00.commit.op_class_0::SimdSha256Hash            0      0.00%     79.01% # Class of committed instruction
system.cpu00.commit.op_class_0::SimdSha256Hash2            0      0.00%     79.01% # Class of committed instruction
system.cpu00.commit.op_class_0::SimdShaSigma2            0      0.00%     79.01% # Class of committed instruction
system.cpu00.commit.op_class_0::SimdShaSigma3            0      0.00%     79.01% # Class of committed instruction
system.cpu00.commit.op_class_0::SimdPredAlu            0      0.00%     79.01% # Class of committed instruction
system.cpu00.commit.op_class_0::MemRead     305414761     13.56%     92.57% # Class of committed instruction
system.cpu00.commit.op_class_0::MemWrite    152341285      6.76%     99.33% # Class of committed instruction
system.cpu00.commit.op_class_0::FloatMemRead      6809555      0.30%     99.64% # Class of committed instruction
system.cpu00.commit.op_class_0::FloatMemWrite      8175682      0.36%    100.00% # Class of committed instruction
system.cpu00.commit.op_class_0::IprAccess            0      0.00%    100.00% # Class of committed instruction
system.cpu00.commit.op_class_0::InstPrefetch            0      0.00%    100.00% # Class of committed instruction
system.cpu00.commit.op_class_0::total      2252666332                       # Class of committed instruction
system.cpu00.commit.refs                    472741283                       # Number of memory references committed
system.cpu00.commit.swp_count                       0                       # Number of s/w prefetches committed
system.cpu00.commit.vec_insts                       0                       # Number of committed Vector instructions.
system.cpu00.committedInsts                 886720937                       # Number of Instructions Simulated
system.cpu00.committedOps                  2252666332                       # Number of Ops (including micro ops) Simulated
system.cpu00.cpi                             3.091799                       # CPI: Cycles Per Instruction
system.cpu00.cpi_total                       3.091799                       # CPI: Total CPI of All Threads
system.cpu00.decode.BlockedCycles          2239415277                       # Number of cycles decode is blocked
system.cpu00.decode.DecodedInsts           3025348511                       # Number of instructions handled by decode
system.cpu00.decode.IdleCycles               99554201                       # Number of cycles decode is idle
system.cpu00.decode.RunCycles               256162653                       # Number of cycles decode is running
system.cpu00.decode.SquashCycles              7578680                       # Number of cycles decode is squashing
system.cpu00.decode.UnblockCycles           138825759                       # Number of cycles decode is unblocking
system.cpu00.dtb.rdAccesses                 349484997                       # TLB accesses on read requests
system.cpu00.dtb.rdMisses                    17878374                       # TLB misses on read requests
system.cpu00.dtb.walker.pwrStateResidencyTicks::UNDEFINED 1727408689173                       # Cumulative time (in ticks) in various power states
system.cpu00.dtb.wrAccesses                 182998998                       # TLB accesses on write requests
system.cpu00.dtb.wrMisses                    14378016                       # TLB misses on write requests
system.cpu00.fetch.Branches                 249690068                       # Number of branches that fetch encountered
system.cpu00.fetch.CacheLines               117671887                       # Number of cache lines fetched
system.cpu00.fetch.Cycles                  2616134185                       # Number of cycles fetch has run and was not squashing or blocked
system.cpu00.fetch.IcacheSquashes               46523                       # Number of outstanding Icache misses that were squashed
system.cpu00.fetch.IcacheWaitRetryStallCycles         3205                       # Number of stall cycles due to full MSHR
system.cpu00.fetch.Insts                   1298297060                       # Number of instructions fetch has processed
system.cpu00.fetch.MiscStallCycles               3800                       # Number of cycles fetch has spent waiting on interrupts, or bad addresses, or out of MSHRs
system.cpu00.fetch.PendingQuiesceStallCycles         2793                       # Number of stall cycles due to pending quiesce instructions
system.cpu00.fetch.PendingTrapStallCycles         5146                       # Number of stall cycles due to pending traps
system.cpu00.fetch.SquashCycles              15157360                       # Number of cycles fetch has spent squashing
system.cpu00.fetch.TlbCycles                       11                       # Number of cycles fetch has spent waiting for tlb
system.cpu00.fetch.branchRate                0.091076                       # Number of branch fetches per cycle
system.cpu00.fetch.icacheStallCycles        117808750                       # Number of cycles fetch is stalled on an Icache miss
system.cpu00.fetch.predictedBranches        153825073                       # Number of branches that fetch has predicted taken
system.cpu00.fetch.rate                      0.473561                       # Number of inst fetches per cycle
system.cpu00.fetch.rateDist::samples       2741536570                       # Number of instructions fetched each cycle (Total)
system.cpu00.fetch.rateDist::mean            1.230126                       # Number of instructions fetched each cycle (Total)
system.cpu00.fetch.rateDist::stdev           2.734618                       # Number of instructions fetched each cycle (Total)
system.cpu00.fetch.rateDist::underflows             0      0.00%      0.00% # Number of instructions fetched each cycle (Total)
system.cpu00.fetch.rateDist::0             2238050996     81.63%     81.63% # Number of instructions fetched each cycle (Total)
system.cpu00.fetch.rateDist::1                9475992      0.35%     81.98% # Number of instructions fetched each cycle (Total)
system.cpu00.fetch.rateDist::2               30293867      1.10%     83.09% # Number of instructions fetched each cycle (Total)
system.cpu00.fetch.rateDist::3               22398448      0.82%     83.90% # Number of instructions fetched each cycle (Total)
system.cpu00.fetch.rateDist::4               14791733      0.54%     84.44% # Number of instructions fetched each cycle (Total)
system.cpu00.fetch.rateDist::5               40672267      1.48%     85.93% # Number of instructions fetched each cycle (Total)
system.cpu00.fetch.rateDist::6               41222540      1.50%     87.43% # Number of instructions fetched each cycle (Total)
system.cpu00.fetch.rateDist::7               31732085      1.16%     88.59% # Number of instructions fetched each cycle (Total)
system.cpu00.fetch.rateDist::8              312898642     11.41%    100.00% # Number of instructions fetched each cycle (Total)
system.cpu00.fetch.rateDist::overflows              0      0.00%    100.00% # Number of instructions fetched each cycle (Total)
system.cpu00.fetch.rateDist::min_value              0                       # Number of instructions fetched each cycle (Total)
system.cpu00.fetch.rateDist::max_value              8                       # Number of instructions fetched each cycle (Total)
system.cpu00.fetch.rateDist::total         2741536570                       # Number of instructions fetched each cycle (Total)
system.cpu00.fp_regfile_reads                14114086                       # number of floating regfile reads
system.cpu00.fp_regfile_writes                9506429                       # number of floating regfile writes
system.cpu00.idleCycles                         26432                       # Total number of cycles that the CPU has spent unscheduled due to idling
system.cpu00.iew.branchMispredicts            7618128                       # Number of branch mispredicts detected at execute
system.cpu00.iew.exec_branches              197895256                       # Number of branches executed
system.cpu00.iew.exec_nop                           0                       # number of nop insts executed
system.cpu00.iew.exec_rate                   1.031498                       # Inst execution rate
system.cpu00.iew.exec_refs                  816077179                       # number of memory reference insts executed
system.cpu00.iew.exec_stores                182998637                       # Number of stores executed
system.cpu00.iew.exec_swp                           0                       # number of swp insts executed
system.cpu00.iew.iewBlockCycles             924240501                       # Number of cycles IEW is blocking
system.cpu00.iew.iewDispLoadInsts           386709582                       # Number of dispatched load instructions
system.cpu00.iew.iewDispNonSpecInsts          3183374                       # Number of dispatched non-speculative instructions
system.cpu00.iew.iewDispSquashedInsts           39550                       # Number of squashed instructions skipped by dispatch
system.cpu00.iew.iewDispStoreInsts          198106433                       # Number of dispatched store instructions
system.cpu00.iew.iewDispatchedInsts        2967488852                       # Number of instructions dispatched to IQ
system.cpu00.iew.iewExecLoadInsts           633078542                       # Number of load instructions executed
system.cpu00.iew.iewExecSquashedInsts          371629                       # Number of squashed instructions skipped in execute
system.cpu00.iew.iewExecutedInsts          2827917160                       # Number of executed instructions
system.cpu00.iew.iewIQFullEvents             12802207                       # Number of times the IQ has become full, causing a stall
system.cpu00.iew.iewIdleCycles                      0                       # Number of cycles IEW is idle
system.cpu00.iew.iewLSQFullEvents           143816012                       # Number of times the LSQ has become full, causing a stall
system.cpu00.iew.iewSquashCycles              7578680                       # Number of cycles IEW is squashing
system.cpu00.iew.iewUnblockCycles           188554567                       # Number of cycles IEW is unblocking
system.cpu00.iew.lsq.thread0.blockedLoads            0                       # Number of blocked loads due to partial load-store forwarding
system.cpu00.iew.lsq.thread0.cacheBlocked     87879643                       # Number of times an access to memory failed due to the cache being blocked
system.cpu00.iew.lsq.thread0.forwLoads      123092062                       # Number of loads that had data forwarded from stores
system.cpu00.iew.lsq.thread0.ignoredResponses         1139                       # Number of memory responses ignored because the instruction is squashed
system.cpu00.iew.lsq.thread0.invAddrLoads            0                       # Number of loads ignored due to an invalid address
system.cpu00.iew.lsq.thread0.invAddrSwpfs            0                       # Number of software prefetches ignored due to an invalid address
system.cpu00.iew.lsq.thread0.memOrderViolation         4023                       # Number of memory ordering violations
system.cpu00.iew.lsq.thread0.rescheduledLoads           39                       # Number of loads that were rescheduled
system.cpu00.iew.lsq.thread0.squashedLoads     74485268                       # Number of loads squashed
system.cpu00.iew.lsq.thread0.squashedStores     37589466                       # Number of stores squashed
system.cpu00.iew.memOrderViolationEvents         4023                       # Number of memory order violations
system.cpu00.iew.predictedNotTakenIncorrect      4751514                       # Number of branches that were predicted not taken incorrectly
system.cpu00.iew.predictedTakenIncorrect      2866614                       # Number of branches that were predicted taken incorrectly
system.cpu00.iew.wb_consumers              4094510684                       # num instructions consuming a value
system.cpu00.iew.wb_count                  2543730195                       # cumulative count of insts written-back
system.cpu00.iew.wb_fanout                   0.445696                       # average fanout of values written-back
system.cpu00.iew.wb_producers              1824906129                       # num instructions producing a value
system.cpu00.iew.wb_rate                     0.927839                       # insts written-back per cycle
system.cpu00.iew.wb_sent                   2543783658                       # cumulative count of insts sent to commit
system.cpu00.int_regfile_reads             5182504032                       # number of integer regfile reads
system.cpu00.int_regfile_writes            2452115127                       # number of integer regfile writes
system.cpu00.interrupts.pwrStateResidencyTicks::UNDEFINED 1727408689173                       # Cumulative time (in ticks) in various power states
system.cpu00.ipc                             0.323436                       # IPC: Instructions Per Cycle
system.cpu00.ipc_total                       0.323436                       # IPC: Total IPC of All Threads
system.cpu00.iq.FU_type_0::No_OpClass        26251835      0.93%      0.93% # Type of FU issued
system.cpu00.iq.FU_type_0::IntAlu          1832635466     64.80%     65.72% # Type of FU issued
system.cpu00.iq.FU_type_0::IntMult               8747      0.00%     65.73% # Type of FU issued
system.cpu00.iq.FU_type_0::IntDiv           151021947      5.34%     71.06% # Type of FU issued
system.cpu00.iq.FU_type_0::FloatAdd              8369      0.00%     71.07% # Type of FU issued
system.cpu00.iq.FU_type_0::FloatCmp                 0      0.00%     71.07% # Type of FU issued
system.cpu00.iq.FU_type_0::FloatCvt                 0      0.00%     71.07% # Type of FU issued
system.cpu00.iq.FU_type_0::FloatMult                0      0.00%     71.07% # Type of FU issued
system.cpu00.iq.FU_type_0::FloatMultAcc             0      0.00%     71.07% # Type of FU issued
system.cpu00.iq.FU_type_0::FloatDiv                 0      0.00%     71.07% # Type of FU issued
system.cpu00.iq.FU_type_0::FloatMisc                0      0.00%     71.07% # Type of FU issued
system.cpu00.iq.FU_type_0::FloatSqrt                0      0.00%     71.07% # Type of FU issued
system.cpu00.iq.FU_type_0::SimdAdd                  0      0.00%     71.07% # Type of FU issued
system.cpu00.iq.FU_type_0::SimdAddAcc               0      0.00%     71.07% # Type of FU issued
system.cpu00.iq.FU_type_0::SimdAlu            1572882      0.06%     71.12% # Type of FU issued
system.cpu00.iq.FU_type_0::SimdCmp                  0      0.00%     71.12% # Type of FU issued
system.cpu00.iq.FU_type_0::SimdCvt             524292      0.02%     71.14% # Type of FU issued
system.cpu00.iq.FU_type_0::SimdMisc             57594      0.00%     71.14% # Type of FU issued
system.cpu00.iq.FU_type_0::SimdMult                 0      0.00%     71.14% # Type of FU issued
system.cpu00.iq.FU_type_0::SimdMultAcc              0      0.00%     71.14% # Type of FU issued
system.cpu00.iq.FU_type_0::SimdShift                8      0.00%     71.14% # Type of FU issued
system.cpu00.iq.FU_type_0::SimdShiftAcc             0      0.00%     71.14% # Type of FU issued
system.cpu00.iq.FU_type_0::SimdDiv                  0      0.00%     71.14% # Type of FU issued
system.cpu00.iq.FU_type_0::SimdSqrt                 0      0.00%     71.14% # Type of FU issued
system.cpu00.iq.FU_type_0::SimdFloatAdd             0      0.00%     71.14% # Type of FU issued
system.cpu00.iq.FU_type_0::SimdFloatAlu             0      0.00%     71.14% # Type of FU issued
system.cpu00.iq.FU_type_0::SimdFloatCmp             0      0.00%     71.14% # Type of FU issued
system.cpu00.iq.FU_type_0::SimdFloatCvt             1      0.00%     71.14% # Type of FU issued
system.cpu00.iq.FU_type_0::SimdFloatDiv             3      0.00%     71.14% # Type of FU issued
system.cpu00.iq.FU_type_0::SimdFloatMisc            0      0.00%     71.14% # Type of FU issued
system.cpu00.iq.FU_type_0::SimdFloatMult            4      0.00%     71.14% # Type of FU issued
system.cpu00.iq.FU_type_0::SimdFloatMultAcc            0      0.00%     71.14% # Type of FU issued
system.cpu00.iq.FU_type_0::SimdFloatSqrt            3      0.00%     71.14% # Type of FU issued
system.cpu00.iq.FU_type_0::SimdReduceAdd            0      0.00%     71.14% # Type of FU issued
system.cpu00.iq.FU_type_0::SimdReduceAlu            0      0.00%     71.14% # Type of FU issued
system.cpu00.iq.FU_type_0::SimdReduceCmp            0      0.00%     71.14% # Type of FU issued
system.cpu00.iq.FU_type_0::SimdFloatReduceAdd            0      0.00%     71.14% # Type of FU issued
system.cpu00.iq.FU_type_0::SimdFloatReduceCmp            0      0.00%     71.14% # Type of FU issued
system.cpu00.iq.FU_type_0::SimdAes                  0      0.00%     71.14% # Type of FU issued
system.cpu00.iq.FU_type_0::SimdAesMix               0      0.00%     71.14% # Type of FU issued
system.cpu00.iq.FU_type_0::SimdSha1Hash             0      0.00%     71.14% # Type of FU issued
system.cpu00.iq.FU_type_0::SimdSha1Hash2            0      0.00%     71.14% # Type of FU issued
system.cpu00.iq.FU_type_0::SimdSha256Hash            0      0.00%     71.14% # Type of FU issued
system.cpu00.iq.FU_type_0::SimdSha256Hash2            0      0.00%     71.14% # Type of FU issued
system.cpu00.iq.FU_type_0::SimdShaSigma2            0      0.00%     71.14% # Type of FU issued
system.cpu00.iq.FU_type_0::SimdShaSigma3            0      0.00%     71.14% # Type of FU issued
system.cpu00.iq.FU_type_0::SimdPredAlu              0      0.00%     71.14% # Type of FU issued
system.cpu00.iq.FU_type_0::MemRead          587149030     20.76%     91.90% # Type of FU issued
system.cpu00.iq.FU_type_0::MemWrite         174850750      6.18%     98.08% # Type of FU issued
system.cpu00.iq.FU_type_0::FloatMemRead      45962146      1.63%     99.71% # Type of FU issued
system.cpu00.iq.FU_type_0::FloatMemWrite      8245710      0.29%    100.00% # Type of FU issued
system.cpu00.iq.FU_type_0::IprAccess                0      0.00%    100.00% # Type of FU issued
system.cpu00.iq.FU_type_0::InstPrefetch             0      0.00%    100.00% # Type of FU issued
system.cpu00.iq.FU_type_0::total           2828288787                       # Type of FU issued
system.cpu00.iq.fp_alu_accesses              68193020                       # Number of floating point alu accesses
system.cpu00.iq.fp_inst_queue_reads         125101709                       # Number of floating instruction queue reads
system.cpu00.iq.fp_inst_queue_wakeup_accesses     17728773                       # Number of floating instruction queue wakeup accesses
system.cpu00.iq.fp_inst_queue_writes         17867576                       # Number of floating instruction queue writes
system.cpu00.iq.fu_busy_cnt                  53887908                       # FU busy when requested
system.cpu00.iq.fu_busy_rate                 0.019053                       # FU busy rate (busy events/executed inst)
system.cpu00.iq.fu_full::No_OpClass                 0      0.00%      0.00% # attempts to use FU when none available
system.cpu00.iq.fu_full::IntAlu              21556163     40.00%     40.00% # attempts to use FU when none available
system.cpu00.iq.fu_full::IntMult                    0      0.00%     40.00% # attempts to use FU when none available
system.cpu00.iq.fu_full::IntDiv                     0      0.00%     40.00% # attempts to use FU when none available
system.cpu00.iq.fu_full::FloatAdd                   0      0.00%     40.00% # attempts to use FU when none available
system.cpu00.iq.fu_full::FloatCmp                   0      0.00%     40.00% # attempts to use FU when none available
system.cpu00.iq.fu_full::FloatCvt                   0      0.00%     40.00% # attempts to use FU when none available
system.cpu00.iq.fu_full::FloatMult                  0      0.00%     40.00% # attempts to use FU when none available
system.cpu00.iq.fu_full::FloatMultAcc               0      0.00%     40.00% # attempts to use FU when none available
system.cpu00.iq.fu_full::FloatDiv                   0      0.00%     40.00% # attempts to use FU when none available
system.cpu00.iq.fu_full::FloatMisc                  0      0.00%     40.00% # attempts to use FU when none available
system.cpu00.iq.fu_full::FloatSqrt                  0      0.00%     40.00% # attempts to use FU when none available
system.cpu00.iq.fu_full::SimdAdd                    0      0.00%     40.00% # attempts to use FU when none available
system.cpu00.iq.fu_full::SimdAddAcc                 0      0.00%     40.00% # attempts to use FU when none available
system.cpu00.iq.fu_full::SimdAlu                    0      0.00%     40.00% # attempts to use FU when none available
system.cpu00.iq.fu_full::SimdCmp                    0      0.00%     40.00% # attempts to use FU when none available
system.cpu00.iq.fu_full::SimdCvt                    0      0.00%     40.00% # attempts to use FU when none available
system.cpu00.iq.fu_full::SimdMisc                   0      0.00%     40.00% # attempts to use FU when none available
system.cpu00.iq.fu_full::SimdMult                   0      0.00%     40.00% # attempts to use FU when none available
system.cpu00.iq.fu_full::SimdMultAcc                0      0.00%     40.00% # attempts to use FU when none available
system.cpu00.iq.fu_full::SimdShift                  0      0.00%     40.00% # attempts to use FU when none available
system.cpu00.iq.fu_full::SimdShiftAcc               0      0.00%     40.00% # attempts to use FU when none available
system.cpu00.iq.fu_full::SimdDiv                    0      0.00%     40.00% # attempts to use FU when none available
system.cpu00.iq.fu_full::SimdSqrt                   0      0.00%     40.00% # attempts to use FU when none available
system.cpu00.iq.fu_full::SimdFloatAdd               0      0.00%     40.00% # attempts to use FU when none available
system.cpu00.iq.fu_full::SimdFloatAlu               0      0.00%     40.00% # attempts to use FU when none available
system.cpu00.iq.fu_full::SimdFloatCmp               0      0.00%     40.00% # attempts to use FU when none available
system.cpu00.iq.fu_full::SimdFloatCvt               0      0.00%     40.00% # attempts to use FU when none available
system.cpu00.iq.fu_full::SimdFloatDiv               0      0.00%     40.00% # attempts to use FU when none available
system.cpu00.iq.fu_full::SimdFloatMisc              0      0.00%     40.00% # attempts to use FU when none available
system.cpu00.iq.fu_full::SimdFloatMult              0      0.00%     40.00% # attempts to use FU when none available
system.cpu00.iq.fu_full::SimdFloatMultAcc            0      0.00%     40.00% # attempts to use FU when none available
system.cpu00.iq.fu_full::SimdFloatSqrt              0      0.00%     40.00% # attempts to use FU when none available
system.cpu00.iq.fu_full::SimdReduceAdd              0      0.00%     40.00% # attempts to use FU when none available
system.cpu00.iq.fu_full::SimdReduceAlu              0      0.00%     40.00% # attempts to use FU when none available
system.cpu00.iq.fu_full::SimdReduceCmp              0      0.00%     40.00% # attempts to use FU when none available
system.cpu00.iq.fu_full::SimdFloatReduceAdd            0      0.00%     40.00% # attempts to use FU when none available
system.cpu00.iq.fu_full::SimdFloatReduceCmp            0      0.00%     40.00% # attempts to use FU when none available
system.cpu00.iq.fu_full::SimdAes                    0      0.00%     40.00% # attempts to use FU when none available
system.cpu00.iq.fu_full::SimdAesMix                 0      0.00%     40.00% # attempts to use FU when none available
system.cpu00.iq.fu_full::SimdSha1Hash               0      0.00%     40.00% # attempts to use FU when none available
system.cpu00.iq.fu_full::SimdSha1Hash2              0      0.00%     40.00% # attempts to use FU when none available
system.cpu00.iq.fu_full::SimdSha256Hash             0      0.00%     40.00% # attempts to use FU when none available
system.cpu00.iq.fu_full::SimdSha256Hash2            0      0.00%     40.00% # attempts to use FU when none available
system.cpu00.iq.fu_full::SimdShaSigma2              0      0.00%     40.00% # attempts to use FU when none available
system.cpu00.iq.fu_full::SimdShaSigma3              0      0.00%     40.00% # attempts to use FU when none available
system.cpu00.iq.fu_full::SimdPredAlu                0      0.00%     40.00% # attempts to use FU when none available
system.cpu00.iq.fu_full::MemRead             18556629     34.44%     74.44% # attempts to use FU when none available
system.cpu00.iq.fu_full::MemWrite             2485629      4.61%     79.05% # attempts to use FU when none available
system.cpu00.iq.fu_full::FloatMemRead        11229869     20.84%     99.89% # attempts to use FU when none available
system.cpu00.iq.fu_full::FloatMemWrite          59618      0.11%    100.00% # attempts to use FU when none available
system.cpu00.iq.fu_full::IprAccess                  0      0.00%    100.00% # attempts to use FU when none available
system.cpu00.iq.fu_full::InstPrefetch               0      0.00%    100.00% # attempts to use FU when none available
system.cpu00.iq.int_alu_accesses           2787731840                       # Number of integer alu accesses
system.cpu00.iq.int_inst_queue_reads       8327006336                       # Number of integer instruction queue reads
system.cpu00.iq.int_inst_queue_wakeup_accesses   2526001422                       # Number of integer instruction queue wakeup accesses
system.cpu00.iq.int_inst_queue_writes      3664447793                       # Number of integer instruction queue writes
system.cpu00.iq.iqInstsAdded               2964177716                       # Number of instructions added to the IQ (excludes non-spec)
system.cpu00.iq.iqInstsIssued              2828288787                       # Number of instructions issued
system.cpu00.iq.iqNonSpecInstsAdded           3311136                       # Number of non-speculative instructions added to the IQ
system.cpu00.iq.iqSquashedInstsExamined     714822520                       # Number of squashed instructions iterated over during squash; mainly for profiling
system.cpu00.iq.iqSquashedInstsIssued          105991                       # Number of squashed instructions issued
system.cpu00.iq.iqSquashedNonSpecRemoved        29464                       # Number of squashed non-spec instructions that were removed
system.cpu00.iq.iqSquashedOperandsExamined   1761566844                       # Number of squashed operands that are examined and possibly removed from graph
system.cpu00.iq.issued_per_cycle::samples   2741536570                       # Number of insts issued each cycle
system.cpu00.iq.issued_per_cycle::mean       1.031644                       # Number of insts issued each cycle
system.cpu00.iq.issued_per_cycle::stdev      1.776874                       # Number of insts issued each cycle
system.cpu00.iq.issued_per_cycle::underflows            0      0.00%      0.00% # Number of insts issued each cycle
system.cpu00.iq.issued_per_cycle::0        1736015381     63.32%     63.32% # Number of insts issued each cycle
system.cpu00.iq.issued_per_cycle::1         344638793     12.57%     75.89% # Number of insts issued each cycle
system.cpu00.iq.issued_per_cycle::2         192444347      7.02%     82.91% # Number of insts issued each cycle
system.cpu00.iq.issued_per_cycle::3         142278283      5.19%     88.10% # Number of insts issued each cycle
system.cpu00.iq.issued_per_cycle::4         159510517      5.82%     93.92% # Number of insts issued each cycle
system.cpu00.iq.issued_per_cycle::5          58191878      2.12%     96.04% # Number of insts issued each cycle
system.cpu00.iq.issued_per_cycle::6          50722416      1.85%     97.89% # Number of insts issued each cycle
system.cpu00.iq.issued_per_cycle::7          23289143      0.85%     98.74% # Number of insts issued each cycle
system.cpu00.iq.issued_per_cycle::8          34445812      1.26%    100.00% # Number of insts issued each cycle
system.cpu00.iq.issued_per_cycle::overflows            0      0.00%    100.00% # Number of insts issued each cycle
system.cpu00.iq.issued_per_cycle::min_value            0                       # Number of insts issued each cycle
system.cpu00.iq.issued_per_cycle::max_value            8                       # Number of insts issued each cycle
system.cpu00.iq.issued_per_cycle::total    2741536570                       # Number of insts issued each cycle
system.cpu00.iq.rate                         1.031634                       # Inst issue rate
system.cpu00.iq.vec_alu_accesses                    0                       # Number of vector alu accesses
system.cpu00.iq.vec_inst_queue_reads                0                       # Number of vector instruction queue reads
system.cpu00.iq.vec_inst_queue_wakeup_accesses            0                       # Number of vector instruction queue wakeup accesses
system.cpu00.iq.vec_inst_queue_writes               0                       # Number of vector instruction queue writes
system.cpu00.itb.rdAccesses                         0                       # TLB accesses on read requests
system.cpu00.itb.rdMisses                           0                       # TLB misses on read requests
system.cpu00.itb.walker.pwrStateResidencyTicks::UNDEFINED 1727408689173                       # Cumulative time (in ticks) in various power states
system.cpu00.itb.wrAccesses                 117672532                       # TLB accesses on write requests
system.cpu00.itb.wrMisses                         672                       # TLB misses on write requests
system.cpu00.memDep0.conflictingLoads        16841514                       # Number of conflicting loads.
system.cpu00.memDep0.conflictingStores       36447252                       # Number of conflicting stores.
system.cpu00.memDep0.insertedLoads          386709582                       # Number of loads inserted to the mem dependence unit.
system.cpu00.memDep0.insertedStores         198106433                       # Number of stores inserted to the mem dependence unit.
system.cpu00.misc_regfile_reads            1135532037                       # number of misc regfile reads
system.cpu00.numCycles                     2741563002                       # number of cpu cycles simulated
system.cpu00.numWorkItemsCompleted                  0                       # number of work items this cpu completed
system.cpu00.numWorkItemsStarted                    0                       # number of work items this cpu started
system.cpu00.pwrStateResidencyTicks::ON  1727408689173                       # Cumulative time (in ticks) in various power states
system.cpu00.rename.BlockCycles            1358905207                       # Number of cycles rename is blocking
system.cpu00.rename.CommittedMaps          2757190425                       # Number of HB maps that are committed
system.cpu00.rename.IQFullEvents            435457721                       # Number of times rename has blocked due to IQ full
system.cpu00.rename.IdleCycles              147257325                       # Number of cycles rename is idle
system.cpu00.rename.LQFullEvents            138307865                       # Number of times rename has blocked due to LQ full
system.cpu00.rename.ROBFullEvents           118455295                       # Number of times rename has blocked due to ROB full
system.cpu00.rename.RenameLookups          8944374133                       # Number of register rename lookups that rename has made
system.cpu00.rename.RenamedInsts           3005284253                       # Number of instructions processed by rename
system.cpu00.rename.RenamedOperands        3734607856                       # Number of destination operands rename has renamed
system.cpu00.rename.RunCycles               325517346                       # Number of cycles rename is running
system.cpu00.rename.SQFullEvents            296924736                       # Number of times rename has blocked due to SQ full
system.cpu00.rename.SquashCycles              7578680                       # Number of cycles rename is squashing
system.cpu00.rename.UnblockCycles           902129861                       # Number of cycles rename is unblocking
system.cpu00.rename.UndoneMaps              977417442                       # Number of HB maps that are undone due to squashing
system.cpu00.rename.fp_rename_lookups        14163733                       # Number of floating rename lookups
system.cpu00.rename.int_rename_lookups     5749494239                       # Number of integer rename lookups
system.cpu00.rename.serializeStallCycles       148151                       # count of cycles rename stalled for serializing inst
system.cpu00.rename.serializingInsts             1400                       # count of serializing insts renamed
system.cpu00.rename.skidInsts               876673549                       # count of insts added to the skid buffer
system.cpu00.rename.tempSerializingInsts         1400                       # count of temporary serializing insts renamed
system.cpu00.rob.rob_reads                 5447528478                       # The number of ROB reads
system.cpu00.rob.rob_writes                6024614864                       # The number of ROB writes
system.cpu00.timesIdled                           361                       # Number of times that the entire CPU went into an idle state and unscheduled itself
system.cpu00.workload.numSyscalls                1061                       # Number of system calls
system.cpu01.apic_clk_domain.clock               5328                       # Clock period in ticks
system.cpu01.branchPred.BTBCorrect                  0                       # Number of correct BTB predictions (this stat may not work properly.
system.cpu01.branchPred.BTBHitPct            0.000000                       # BTB Hit Percentage
system.cpu01.branchPred.BTBHits                     0                       # Number of BTB hits
system.cpu01.branchPred.BTBLookups            1709116                       # Number of BTB lookups
system.cpu01.branchPred.RASInCorrect               50                       # Number of incorrect RAS predictions.
system.cpu01.branchPred.condIncorrect             261                       # Number of conditional branches incorrect
system.cpu01.branchPred.condPredicted         2181342                       # Number of conditional branches predicted
system.cpu01.branchPred.indirectHits          1220741                       # Number of indirect target hits.
system.cpu01.branchPred.indirectLookups       1709116                       # Number of indirect predictor lookups.
system.cpu01.branchPred.indirectMisses         488375                       # Number of indirect misses.
system.cpu01.branchPred.lookups               2181342                       # Number of BP lookups
system.cpu01.branchPred.usedRAS                   702                       # Number of times the RAS was used to get a target.
system.cpu01.branchPredindirectMispredicted          161                       # Number of mispredicted indirect branches.
system.cpu01.cc_regfile_reads                10897516                       # number of cc regfile reads
system.cpu01.cc_regfile_writes                7321823                       # number of cc regfile writes
system.cpu01.commit.amos                            0                       # Number of atomic instructions committed
system.cpu01.commit.branchMispredicts             838                       # The number of times a branch was mispredicted
system.cpu01.commit.branches                  2179386                       # Number of branches committed
system.cpu01.commit.bw_lim_events              134831                       # number cycles where commit BW limit reached
system.cpu01.commit.commitNonSpecStalls          1687                       # The number of times commit has been forced to stall to communicate backwards
system.cpu01.commit.commitSquashedInsts         10064                       # The number of squashed insts skipped by commit
system.cpu01.commit.committedInsts            9335536                       # Number of instructions committed
system.cpu01.commit.committedOps             16753972                       # Number of ops (including micro ops) committed
system.cpu01.commit.committed_per_cycle::samples     34589504                       # Number of insts commited each cycle
system.cpu01.commit.committed_per_cycle::mean     0.484366                       # Number of insts commited each cycle
system.cpu01.commit.committed_per_cycle::stdev     1.403231                       # Number of insts commited each cycle
system.cpu01.commit.committed_per_cycle::underflows            0      0.00%      0.00% # Number of insts commited each cycle
system.cpu01.commit.committed_per_cycle::0     29689190     85.83%     85.83% # Number of insts commited each cycle
system.cpu01.commit.committed_per_cycle::1      1313003      3.80%     89.63% # Number of insts commited each cycle
system.cpu01.commit.committed_per_cycle::2          745      0.00%     89.63% # Number of insts commited each cycle
system.cpu01.commit.committed_per_cycle::3      1505404      4.35%     93.98% # Number of insts commited each cycle
system.cpu01.commit.committed_per_cycle::4       949128      2.74%     96.73% # Number of insts commited each cycle
system.cpu01.commit.committed_per_cycle::5       400528      1.16%     97.89% # Number of insts commited each cycle
system.cpu01.commit.committed_per_cycle::6       131258      0.38%     98.26% # Number of insts commited each cycle
system.cpu01.commit.committed_per_cycle::7       465417      1.35%     99.61% # Number of insts commited each cycle
system.cpu01.commit.committed_per_cycle::8       134831      0.39%    100.00% # Number of insts commited each cycle
system.cpu01.commit.committed_per_cycle::overflows            0      0.00%    100.00% # Number of insts commited each cycle
system.cpu01.commit.committed_per_cycle::min_value            0                       # Number of insts commited each cycle
system.cpu01.commit.committed_per_cycle::max_value            8                       # Number of insts commited each cycle
system.cpu01.commit.committed_per_cycle::total     34589504                       # Number of insts commited each cycle
system.cpu01.commit.fp_insts                  3145787                       # Number of committed floating point instructions.
system.cpu01.commit.function_calls                598                       # Number of function calls committed.
system.cpu01.commit.int_insts                13174767                       # Number of committed integer instructions.
system.cpu01.commit.loads                     1487186                       # Number of loads committed
system.cpu01.commit.membars                      1122                       # Number of memory barriers committed
system.cpu01.commit.op_class_0::No_OpClass          562      0.00%      0.00% # Class of committed instruction
system.cpu01.commit.op_class_0::IntAlu       13166680     78.59%     78.59% # Class of committed instruction
system.cpu01.commit.op_class_0::IntMult             1      0.00%     78.59% # Class of committed instruction
system.cpu01.commit.op_class_0::IntDiv              7      0.00%     78.59% # Class of committed instruction
system.cpu01.commit.op_class_0::FloatAdd            1      0.00%     78.59% # Class of committed instruction
system.cpu01.commit.op_class_0::FloatCmp            0      0.00%     78.59% # Class of committed instruction
system.cpu01.commit.op_class_0::FloatCvt            0      0.00%     78.59% # Class of committed instruction
system.cpu01.commit.op_class_0::FloatMult            0      0.00%     78.59% # Class of committed instruction
system.cpu01.commit.op_class_0::FloatMultAcc            0      0.00%     78.59% # Class of committed instruction
system.cpu01.commit.op_class_0::FloatDiv            0      0.00%     78.59% # Class of committed instruction
system.cpu01.commit.op_class_0::FloatMisc            0      0.00%     78.59% # Class of committed instruction
system.cpu01.commit.op_class_0::FloatSqrt            0      0.00%     78.59% # Class of committed instruction
system.cpu01.commit.op_class_0::SimdAdd             0      0.00%     78.59% # Class of committed instruction
system.cpu01.commit.op_class_0::SimdAddAcc            0      0.00%     78.59% # Class of committed instruction
system.cpu01.commit.op_class_0::SimdAlu       1572878      9.39%     87.98% # Class of committed instruction
system.cpu01.commit.op_class_0::SimdCmp             0      0.00%     87.98% # Class of committed instruction
system.cpu01.commit.op_class_0::SimdCvt        524292      3.13%     91.11% # Class of committed instruction
system.cpu01.commit.op_class_0::SimdMisc            4      0.00%     91.11% # Class of committed instruction
system.cpu01.commit.op_class_0::SimdMult            0      0.00%     91.11% # Class of committed instruction
system.cpu01.commit.op_class_0::SimdMultAcc            0      0.00%     91.11% # Class of committed instruction
system.cpu01.commit.op_class_0::SimdShift            6      0.00%     91.11% # Class of committed instruction
system.cpu01.commit.op_class_0::SimdShiftAcc            0      0.00%     91.11% # Class of committed instruction
system.cpu01.commit.op_class_0::SimdDiv             0      0.00%     91.11% # Class of committed instruction
system.cpu01.commit.op_class_0::SimdSqrt            0      0.00%     91.11% # Class of committed instruction
system.cpu01.commit.op_class_0::SimdFloatAdd            0      0.00%     91.11% # Class of committed instruction
system.cpu01.commit.op_class_0::SimdFloatAlu            0      0.00%     91.11% # Class of committed instruction
system.cpu01.commit.op_class_0::SimdFloatCmp            0      0.00%     91.11% # Class of committed instruction
system.cpu01.commit.op_class_0::SimdFloatCvt            0      0.00%     91.11% # Class of committed instruction
system.cpu01.commit.op_class_0::SimdFloatDiv            0      0.00%     91.11% # Class of committed instruction
system.cpu01.commit.op_class_0::SimdFloatMisc            0      0.00%     91.11% # Class of committed instruction
system.cpu01.commit.op_class_0::SimdFloatMult            0      0.00%     91.11% # Class of committed instruction
system.cpu01.commit.op_class_0::SimdFloatMultAcc            0      0.00%     91.11% # Class of committed instruction
system.cpu01.commit.op_class_0::SimdFloatSqrt            0      0.00%     91.11% # Class of committed instruction
system.cpu01.commit.op_class_0::SimdReduceAdd            0      0.00%     91.11% # Class of committed instruction
system.cpu01.commit.op_class_0::SimdReduceAlu            0      0.00%     91.11% # Class of committed instruction
system.cpu01.commit.op_class_0::SimdReduceCmp            0      0.00%     91.11% # Class of committed instruction
system.cpu01.commit.op_class_0::SimdFloatReduceAdd            0      0.00%     91.11% # Class of committed instruction
system.cpu01.commit.op_class_0::SimdFloatReduceCmp            0      0.00%     91.11% # Class of committed instruction
system.cpu01.commit.op_class_0::SimdAes             0      0.00%     91.11% # Class of committed instruction
system.cpu01.commit.op_class_0::SimdAesMix            0      0.00%     91.11% # Class of committed instruction
system.cpu01.commit.op_class_0::SimdSha1Hash            0      0.00%     91.11% # Class of committed instruction
system.cpu01.commit.op_class_0::SimdSha1Hash2            0      0.00%     91.11% # Class of committed instruction
system.cpu01.commit.op_class_0::SimdSha256Hash            0      0.00%     91.11% # Class of committed instruction
system.cpu01.commit.op_class_0::SimdSha256Hash2            0      0.00%     91.11% # Class of committed instruction
system.cpu01.commit.op_class_0::SimdShaSigma2            0      0.00%     91.11% # Class of committed instruction
system.cpu01.commit.op_class_0::SimdShaSigma3            0      0.00%     91.11% # Class of committed instruction
system.cpu01.commit.op_class_0::SimdPredAlu            0      0.00%     91.11% # Class of committed instruction
system.cpu01.commit.op_class_0::MemRead        962889      5.75%     96.86% # Class of committed instruction
system.cpu01.commit.op_class_0::MemWrite         2347      0.01%     96.87% # Class of committed instruction
system.cpu01.commit.op_class_0::FloatMemRead       524297      3.13%    100.00% # Class of committed instruction
system.cpu01.commit.op_class_0::FloatMemWrite            8      0.00%    100.00% # Class of committed instruction
system.cpu01.commit.op_class_0::IprAccess            0      0.00%    100.00% # Class of committed instruction
system.cpu01.commit.op_class_0::InstPrefetch            0      0.00%    100.00% # Class of committed instruction
system.cpu01.commit.op_class_0::total        16753972                       # Class of committed instruction
system.cpu01.commit.refs                      1489541                       # Number of memory references committed
system.cpu01.commit.swp_count                       0                       # Number of s/w prefetches committed
system.cpu01.commit.vec_insts                       0                       # Number of committed Vector instructions.
system.cpu01.committedInsts                   9335536                       # Number of Instructions Simulated
system.cpu01.committedOps                    16753972                       # Number of Ops (including micro ops) Simulated
system.cpu01.cpi                             3.706184                       # CPI: Cycles Per Instruction
system.cpu01.cpi_total                       3.706184                       # CPI: Total CPI of All Threads
system.cpu01.decode.BlockedCycles            30012005                       # Number of cycles decode is blocked
system.cpu01.decode.DecodedInsts             16767529                       # Number of instructions handled by decode
system.cpu01.decode.IdleCycles                1382504                       # Number of cycles decode is idle
system.cpu01.decode.RunCycles                 2799339                       # Number of cycles decode is running
system.cpu01.decode.SquashCycles                  844                       # Number of cycles decode is squashing
system.cpu01.decode.UnblockCycles              396798                       # Number of cycles decode is unblocking
system.cpu01.dtb.rdAccesses                   1487751                       # TLB accesses on read requests
system.cpu01.dtb.rdMisses                        1618                       # TLB misses on read requests
system.cpu01.dtb.walker.pwrStateResidencyTicks::UNDEFINED 1727408689173                       # Cumulative time (in ticks) in various power states
system.cpu01.dtb.wrAccesses                      2592                       # TLB accesses on write requests
system.cpu01.dtb.wrMisses                           6                       # TLB misses on write requests
system.cpu01.fetch.Branches                   2181342                       # Number of branches that fetch encountered
system.cpu01.fetch.CacheLines                 1771478                       # Number of cache lines fetched
system.cpu01.fetch.Cycles                    32811204                       # Number of cycles fetch has run and was not squashing or blocked
system.cpu01.fetch.IcacheSquashes                  67                       # Number of outstanding Icache misses that were squashed
system.cpu01.fetch.IcacheWaitRetryStallCycles          258                       # Number of stall cycles due to full MSHR
system.cpu01.fetch.Insts                      9344839                       # Number of instructions fetch has processed
system.cpu01.fetch.MiscStallCycles               1214                       # Number of cycles fetch has spent waiting on interrupts, or bad addresses, or out of MSHRs
system.cpu01.fetch.PendingTrapStallCycles         3704                       # Number of stall cycles due to pending traps
system.cpu01.fetch.SquashCycles                  1688                       # Number of cycles fetch has spent squashing
system.cpu01.fetch.branchRate                0.063046                       # Number of branch fetches per cycle
system.cpu01.fetch.icacheStallCycles          1774266                       # Number of cycles fetch is stalled on an Icache miss
system.cpu01.fetch.predictedBranches          1221443                       # Number of branches that fetch has predicted taken
system.cpu01.fetch.rate                      0.270088                       # Number of inst fetches per cycle
system.cpu01.fetch.rateDist::samples         34591490                       # Number of instructions fetched each cycle (Total)
system.cpu01.fetch.rateDist::mean            0.484819                       # Number of instructions fetched each cycle (Total)
system.cpu01.fetch.rateDist::stdev           1.696802                       # Number of instructions fetched each cycle (Total)
system.cpu01.fetch.rateDist::underflows             0      0.00%      0.00% # Number of instructions fetched each cycle (Total)
system.cpu01.fetch.rateDist::0               31195659     90.18%     90.18% # Number of instructions fetched each cycle (Total)
system.cpu01.fetch.rateDist::1                 622599      1.80%     91.98% # Number of instructions fetched each cycle (Total)
system.cpu01.fetch.rateDist::2                    929      0.00%     91.99% # Number of instructions fetched each cycle (Total)
system.cpu01.fetch.rateDist::3                 688428      1.99%     93.98% # Number of instructions fetched each cycle (Total)
system.cpu01.fetch.rateDist::4                 400260      1.16%     95.13% # Number of instructions fetched each cycle (Total)
system.cpu01.fetch.rateDist::5                 263660      0.76%     95.90% # Number of instructions fetched each cycle (Total)
system.cpu01.fetch.rateDist::6                    501      0.00%     95.90% # Number of instructions fetched each cycle (Total)
system.cpu01.fetch.rateDist::7                 197106      0.57%     96.47% # Number of instructions fetched each cycle (Total)
system.cpu01.fetch.rateDist::8                1222348      3.53%    100.00% # Number of instructions fetched each cycle (Total)
system.cpu01.fetch.rateDist::overflows              0      0.00%    100.00% # Number of instructions fetched each cycle (Total)
system.cpu01.fetch.rateDist::min_value              0                       # Number of instructions fetched each cycle (Total)
system.cpu01.fetch.rateDist::max_value              8                       # Number of instructions fetched each cycle (Total)
system.cpu01.fetch.rateDist::total           34591490                       # Number of instructions fetched each cycle (Total)
system.cpu01.fp_regfile_reads                 5767271                       # number of floating regfile reads
system.cpu01.fp_regfile_writes                3145858                       # number of floating regfile writes
system.cpu01.idleCycles                          7721                       # Total number of cycles that the CPU has spent unscheduled due to idling
system.cpu01.iew.branchMispredicts                940                       # Number of branch mispredicts detected at execute
system.cpu01.iew.exec_branches                2179852                       # Number of branches executed
system.cpu01.iew.exec_nop                           0                       # number of nop insts executed
system.cpu01.iew.exec_rate                   0.628500                       # Inst execution rate
system.cpu01.iew.exec_refs                    6475778                       # number of memory reference insts executed
system.cpu01.iew.exec_stores                     2591                       # Number of stores executed
system.cpu01.iew.exec_swp                           0                       # number of swp insts executed
system.cpu01.iew.iewBlockCycles              28810579                       # Number of cycles IEW is blocking
system.cpu01.iew.iewDispLoadInsts             1488449                       # Number of dispatched load instructions
system.cpu01.iew.iewDispNonSpecInsts              637                       # Number of dispatched non-speculative instructions
system.cpu01.iew.iewDispSquashedInsts              27                       # Number of squashed instructions skipped by dispatch
system.cpu01.iew.iewDispStoreInsts               3035                       # Number of dispatched store instructions
system.cpu01.iew.iewDispatchedInsts          16764360                       # Number of instructions dispatched to IQ
system.cpu01.iew.iewExecLoadInsts             6473187                       # Number of load instructions executed
system.cpu01.iew.iewExecSquashedInsts             565                       # Number of squashed instructions skipped in execute
system.cpu01.iew.iewExecutedInsts            21745593                       # Number of executed instructions
system.cpu01.iew.iewIQFullEvents                  607                       # Number of times the IQ has become full, causing a stall
system.cpu01.iew.iewIdleCycles                      0                       # Number of cycles IEW is idle
system.cpu01.iew.iewLSQFullEvents                   0                       # Number of times the LSQ has become full, causing a stall
system.cpu01.iew.iewSquashCycles                  844                       # Number of cycles IEW is squashing
system.cpu01.iew.iewUnblockCycles               67082                       # Number of cycles IEW is unblocking
system.cpu01.iew.lsq.thread0.blockedLoads            0                       # Number of blocked loads due to partial load-store forwarding
system.cpu01.iew.lsq.thread0.cacheBlocked      1050657                       # Number of times an access to memory failed due to the cache being blocked
system.cpu01.iew.lsq.thread0.forwLoads           1106                       # Number of loads that had data forwarded from stores
system.cpu01.iew.lsq.thread0.ignoredResponses            1                       # Number of memory responses ignored because the instruction is squashed
system.cpu01.iew.lsq.thread0.invAddrLoads            0                       # Number of loads ignored due to an invalid address
system.cpu01.iew.lsq.thread0.invAddrSwpfs            0                       # Number of software prefetches ignored due to an invalid address
system.cpu01.iew.lsq.thread0.memOrderViolation            1                       # Number of memory ordering violations
system.cpu01.iew.lsq.thread0.rescheduledLoads            0                       # Number of loads that were rescheduled
system.cpu01.iew.lsq.thread0.squashedLoads         1263                       # Number of loads squashed
system.cpu01.iew.lsq.thread0.squashedStores          680                       # Number of stores squashed
system.cpu01.iew.memOrderViolationEvents            1                       # Number of memory order violations
system.cpu01.iew.predictedNotTakenIncorrect          855                       # Number of branches that were predicted not taken incorrectly
system.cpu01.iew.predictedTakenIncorrect           85                       # Number of branches that were predicted taken incorrectly
system.cpu01.iew.wb_consumers                18177671                       # num instructions consuming a value
system.cpu01.iew.wb_count                    16759290                       # cumulative count of insts written-back
system.cpu01.iew.wb_fanout                   0.723683                       # average fanout of values written-back
system.cpu01.iew.wb_producers                13154863                       # num instructions producing a value
system.cpu01.iew.wb_rate                     0.484384                       # insts written-back per cycle
system.cpu01.iew.wb_sent                     16759937                       # cumulative count of insts sent to commit
system.cpu01.int_regfile_reads               24649584                       # number of integer regfile reads
system.cpu01.int_regfile_writes              10473096                       # number of integer regfile writes
system.cpu01.interrupts.pwrStateResidencyTicks::UNDEFINED 1727408689173                       # Cumulative time (in ticks) in various power states
system.cpu01.ipc                             0.269819                       # IPC: Instructions Per Cycle
system.cpu01.ipc_total                       0.269819                       # IPC: Total IPC of All Threads
system.cpu01.iq.FU_type_0::No_OpClass            1351      0.01%      0.01% # Type of FU issued
system.cpu01.iq.FU_type_0::IntAlu            13171655     60.57%     60.58% # Type of FU issued
system.cpu01.iq.FU_type_0::IntMult                  3      0.00%     60.58% # Type of FU issued
system.cpu01.iq.FU_type_0::IntDiv                  14      0.00%     60.58% # Type of FU issued
system.cpu01.iq.FU_type_0::FloatAdd                24      0.00%     60.58% # Type of FU issued
system.cpu01.iq.FU_type_0::FloatCmp                 0      0.00%     60.58% # Type of FU issued
system.cpu01.iq.FU_type_0::FloatCvt                 0      0.00%     60.58% # Type of FU issued
system.cpu01.iq.FU_type_0::FloatMult                0      0.00%     60.58% # Type of FU issued
system.cpu01.iq.FU_type_0::FloatMultAcc             0      0.00%     60.58% # Type of FU issued
system.cpu01.iq.FU_type_0::FloatDiv                 0      0.00%     60.58% # Type of FU issued
system.cpu01.iq.FU_type_0::FloatMisc                0      0.00%     60.58% # Type of FU issued
system.cpu01.iq.FU_type_0::FloatSqrt                0      0.00%     60.58% # Type of FU issued
system.cpu01.iq.FU_type_0::SimdAdd                  0      0.00%     60.58% # Type of FU issued
system.cpu01.iq.FU_type_0::SimdAddAcc               0      0.00%     60.58% # Type of FU issued
system.cpu01.iq.FU_type_0::SimdAlu            1572878      7.23%     67.81% # Type of FU issued
system.cpu01.iq.FU_type_0::SimdCmp                  0      0.00%     67.81% # Type of FU issued
system.cpu01.iq.FU_type_0::SimdCvt             524292      2.41%     70.22% # Type of FU issued
system.cpu01.iq.FU_type_0::SimdMisc                 6      0.00%     70.22% # Type of FU issued
system.cpu01.iq.FU_type_0::SimdMult                 0      0.00%     70.22% # Type of FU issued
system.cpu01.iq.FU_type_0::SimdMultAcc              0      0.00%     70.22% # Type of FU issued
system.cpu01.iq.FU_type_0::SimdShift                8      0.00%     70.22% # Type of FU issued
system.cpu01.iq.FU_type_0::SimdShiftAcc             0      0.00%     70.22% # Type of FU issued
system.cpu01.iq.FU_type_0::SimdDiv                  0      0.00%     70.22% # Type of FU issued
system.cpu01.iq.FU_type_0::SimdSqrt                 0      0.00%     70.22% # Type of FU issued
system.cpu01.iq.FU_type_0::SimdFloatAdd             0      0.00%     70.22% # Type of FU issued
system.cpu01.iq.FU_type_0::SimdFloatAlu             0      0.00%     70.22% # Type of FU issued
system.cpu01.iq.FU_type_0::SimdFloatCmp             0      0.00%     70.22% # Type of FU issued
system.cpu01.iq.FU_type_0::SimdFloatCvt             0      0.00%     70.22% # Type of FU issued
system.cpu01.iq.FU_type_0::SimdFloatDiv             0      0.00%     70.22% # Type of FU issued
system.cpu01.iq.FU_type_0::SimdFloatMisc            0      0.00%     70.22% # Type of FU issued
system.cpu01.iq.FU_type_0::SimdFloatMult            0      0.00%     70.22% # Type of FU issued
system.cpu01.iq.FU_type_0::SimdFloatMultAcc            0      0.00%     70.22% # Type of FU issued
system.cpu01.iq.FU_type_0::SimdFloatSqrt            0      0.00%     70.22% # Type of FU issued
system.cpu01.iq.FU_type_0::SimdReduceAdd            0      0.00%     70.22% # Type of FU issued
system.cpu01.iq.FU_type_0::SimdReduceAlu            0      0.00%     70.22% # Type of FU issued
system.cpu01.iq.FU_type_0::SimdReduceCmp            0      0.00%     70.22% # Type of FU issued
system.cpu01.iq.FU_type_0::SimdFloatReduceAdd            0      0.00%     70.22% # Type of FU issued
system.cpu01.iq.FU_type_0::SimdFloatReduceCmp            0      0.00%     70.22% # Type of FU issued
system.cpu01.iq.FU_type_0::SimdAes                  0      0.00%     70.22% # Type of FU issued
system.cpu01.iq.FU_type_0::SimdAesMix               0      0.00%     70.22% # Type of FU issued
system.cpu01.iq.FU_type_0::SimdSha1Hash             0      0.00%     70.22% # Type of FU issued
system.cpu01.iq.FU_type_0::SimdSha1Hash2            0      0.00%     70.22% # Type of FU issued
system.cpu01.iq.FU_type_0::SimdSha256Hash            0      0.00%     70.22% # Type of FU issued
system.cpu01.iq.FU_type_0::SimdSha256Hash2            0      0.00%     70.22% # Type of FU issued
system.cpu01.iq.FU_type_0::SimdShaSigma2            0      0.00%     70.22% # Type of FU issued
system.cpu01.iq.FU_type_0::SimdShaSigma3            0      0.00%     70.22% # Type of FU issued
system.cpu01.iq.FU_type_0::SimdPredAlu              0      0.00%     70.22% # Type of FU issued
system.cpu01.iq.FU_type_0::MemRead             968244      4.45%     74.67% # Type of FU issued
system.cpu01.iq.FU_type_0::MemWrite              2630      0.01%     74.68% # Type of FU issued
system.cpu01.iq.FU_type_0::FloatMemRead       5505044     25.32%    100.00% # Type of FU issued
system.cpu01.iq.FU_type_0::FloatMemWrite            9      0.00%    100.00% # Type of FU issued
system.cpu01.iq.FU_type_0::IprAccess                0      0.00%    100.00% # Type of FU issued
system.cpu01.iq.FU_type_0::InstPrefetch             0      0.00%    100.00% # Type of FU issued
system.cpu01.iq.FU_type_0::total             21746158                       # Type of FU issued
system.cpu01.iq.fp_alu_accesses               8912995                       # Number of floating point alu accesses
system.cpu01.iq.fp_inst_queue_reads          17039562                       # Number of floating instruction queue reads
system.cpu01.iq.fp_inst_queue_wakeup_accesses      3145813                       # Number of floating instruction queue wakeup accesses
system.cpu01.iq.fp_inst_queue_writes          3145987                       # Number of floating instruction queue writes
system.cpu01.iq.fu_busy_cnt                    788827                       # FU busy when requested
system.cpu01.iq.fu_busy_rate                 0.036274                       # FU busy rate (busy events/executed inst)
system.cpu01.iq.fu_full::No_OpClass                 0      0.00%      0.00% # attempts to use FU when none available
system.cpu01.iq.fu_full::IntAlu                  1060      0.13%      0.13% # attempts to use FU when none available
system.cpu01.iq.fu_full::IntMult                    0      0.00%      0.13% # attempts to use FU when none available
system.cpu01.iq.fu_full::IntDiv                     0      0.00%      0.13% # attempts to use FU when none available
system.cpu01.iq.fu_full::FloatAdd                   0      0.00%      0.13% # attempts to use FU when none available
system.cpu01.iq.fu_full::FloatCmp                   0      0.00%      0.13% # attempts to use FU when none available
system.cpu01.iq.fu_full::FloatCvt                   0      0.00%      0.13% # attempts to use FU when none available
system.cpu01.iq.fu_full::FloatMult                  0      0.00%      0.13% # attempts to use FU when none available
system.cpu01.iq.fu_full::FloatMultAcc               0      0.00%      0.13% # attempts to use FU when none available
system.cpu01.iq.fu_full::FloatDiv                   0      0.00%      0.13% # attempts to use FU when none available
system.cpu01.iq.fu_full::FloatMisc                  0      0.00%      0.13% # attempts to use FU when none available
system.cpu01.iq.fu_full::FloatSqrt                  0      0.00%      0.13% # attempts to use FU when none available
system.cpu01.iq.fu_full::SimdAdd                    0      0.00%      0.13% # attempts to use FU when none available
system.cpu01.iq.fu_full::SimdAddAcc                 0      0.00%      0.13% # attempts to use FU when none available
system.cpu01.iq.fu_full::SimdAlu                    0      0.00%      0.13% # attempts to use FU when none available
system.cpu01.iq.fu_full::SimdCmp                    0      0.00%      0.13% # attempts to use FU when none available
system.cpu01.iq.fu_full::SimdCvt                    0      0.00%      0.13% # attempts to use FU when none available
system.cpu01.iq.fu_full::SimdMisc                   0      0.00%      0.13% # attempts to use FU when none available
system.cpu01.iq.fu_full::SimdMult                   0      0.00%      0.13% # attempts to use FU when none available
system.cpu01.iq.fu_full::SimdMultAcc                0      0.00%      0.13% # attempts to use FU when none available
system.cpu01.iq.fu_full::SimdShift                  0      0.00%      0.13% # attempts to use FU when none available
system.cpu01.iq.fu_full::SimdShiftAcc               0      0.00%      0.13% # attempts to use FU when none available
system.cpu01.iq.fu_full::SimdDiv                    0      0.00%      0.13% # attempts to use FU when none available
system.cpu01.iq.fu_full::SimdSqrt                   0      0.00%      0.13% # attempts to use FU when none available
system.cpu01.iq.fu_full::SimdFloatAdd               0      0.00%      0.13% # attempts to use FU when none available
system.cpu01.iq.fu_full::SimdFloatAlu               0      0.00%      0.13% # attempts to use FU when none available
system.cpu01.iq.fu_full::SimdFloatCmp               0      0.00%      0.13% # attempts to use FU when none available
system.cpu01.iq.fu_full::SimdFloatCvt               0      0.00%      0.13% # attempts to use FU when none available
system.cpu01.iq.fu_full::SimdFloatDiv               0      0.00%      0.13% # attempts to use FU when none available
system.cpu01.iq.fu_full::SimdFloatMisc              0      0.00%      0.13% # attempts to use FU when none available
system.cpu01.iq.fu_full::SimdFloatMult              0      0.00%      0.13% # attempts to use FU when none available
system.cpu01.iq.fu_full::SimdFloatMultAcc            0      0.00%      0.13% # attempts to use FU when none available
system.cpu01.iq.fu_full::SimdFloatSqrt              0      0.00%      0.13% # attempts to use FU when none available
system.cpu01.iq.fu_full::SimdReduceAdd              0      0.00%      0.13% # attempts to use FU when none available
system.cpu01.iq.fu_full::SimdReduceAlu              0      0.00%      0.13% # attempts to use FU when none available
system.cpu01.iq.fu_full::SimdReduceCmp              0      0.00%      0.13% # attempts to use FU when none available
system.cpu01.iq.fu_full::SimdFloatReduceAdd            0      0.00%      0.13% # attempts to use FU when none available
system.cpu01.iq.fu_full::SimdFloatReduceCmp            0      0.00%      0.13% # attempts to use FU when none available
system.cpu01.iq.fu_full::SimdAes                    0      0.00%      0.13% # attempts to use FU when none available
system.cpu01.iq.fu_full::SimdAesMix                 0      0.00%      0.13% # attempts to use FU when none available
system.cpu01.iq.fu_full::SimdSha1Hash               0      0.00%      0.13% # attempts to use FU when none available
system.cpu01.iq.fu_full::SimdSha1Hash2              0      0.00%      0.13% # attempts to use FU when none available
system.cpu01.iq.fu_full::SimdSha256Hash             0      0.00%      0.13% # attempts to use FU when none available
system.cpu01.iq.fu_full::SimdSha256Hash2            0      0.00%      0.13% # attempts to use FU when none available
system.cpu01.iq.fu_full::SimdShaSigma2              0      0.00%      0.13% # attempts to use FU when none available
system.cpu01.iq.fu_full::SimdShaSigma3              0      0.00%      0.13% # attempts to use FU when none available
system.cpu01.iq.fu_full::SimdPredAlu                0      0.00%      0.13% # attempts to use FU when none available
system.cpu01.iq.fu_full::MemRead                  776      0.10%      0.23% # attempts to use FU when none available
[...]
system.ruby.network.int_links40.credit_link.pwrStateResidencyTicks::UNDEFINED 1727423785395                       # Cumulative time (in ticks) in various power states
system.ruby.network.int_links40.network_link.pwrStateResidencyTicks::UNDEFINED 1727423785395                       # Cumulative time (in ticks) in various power states
system.ruby.network.int_links41.credit_link.pwrStateResidencyTicks::UNDEFINED 1727423785395                       # Cumulative time (in ticks) in various power states
system.ruby.network.int_links41.network_link.pwrStateResidencyTicks::UNDEFINED 1727423785395                       # Cumulative time (in ticks) in various power states
system.ruby.network.int_links42.credit_link.pwrStateResidencyTicks::UNDEFINED 1727423785395                       # Cumulative time (in ticks) in various power states
system.ruby.network.int_links42.network_link.pwrStateResidencyTicks::UNDEFINED 1727423785395                       # Cumulative time (in ticks) in various power states
system.ruby.network.int_links43.credit_link.pwrStateResidencyTicks::UNDEFINED 1727423785395                       # Cumulative time (in ticks) in various power states
system.ruby.network.int_links43.network_link.pwrStateResidencyTicks::UNDEFINED 1727423785395                       # Cumulative time (in ticks) in various power states
system.ruby.network.int_links44.credit_link.pwrStateResidencyTicks::UNDEFINED 1727423785395                       # Cumulative time (in ticks) in various power states
system.ruby.network.int_links44.network_link.pwrStateResidencyTicks::UNDEFINED 1727423785395                       # Cumulative time (in ticks) in various power states
system.ruby.network.int_links45.credit_link.pwrStateResidencyTicks::UNDEFINED 1727423785395                       # Cumulative time (in ticks) in various power states
system.ruby.network.int_links45.network_link.pwrStateResidencyTicks::UNDEFINED 1727423785395                       # Cumulative time (in ticks) in various power states
system.ruby.network.int_links46.credit_link.pwrStateResidencyTicks::UNDEFINED 1727423785395                       # Cumulative time (in ticks) in various power states
system.ruby.network.int_links46.network_link.pwrStateResidencyTicks::UNDEFINED 1727423785395                       # Cumulative time (in ticks) in various power states
system.ruby.network.int_links47.credit_link.pwrStateResidencyTicks::UNDEFINED 1727423785395                       # Cumulative time (in ticks) in various power states
system.ruby.network.int_links47.network_link.pwrStateResidencyTicks::UNDEFINED 1727423785395                       # Cumulative time (in ticks) in various power states
system.ruby.network.int_links48.credit_link.pwrStateResidencyTicks::UNDEFINED 1727423785395                       # Cumulative time (in ticks) in various power states
system.ruby.network.int_links48.network_link.pwrStateResidencyTicks::UNDEFINED 1727423785395                       # Cumulative time (in ticks) in various power states
system.ruby.network.int_links49.credit_link.pwrStateResidencyTicks::UNDEFINED 1727423785395                       # Cumulative time (in ticks) in various power states
system.ruby.network.int_links49.network_link.pwrStateResidencyTicks::UNDEFINED 1727423785395                       # Cumulative time (in ticks) in various power states
system.ruby.network.netifs00.pwrStateResidencyTicks::UNDEFINED 1727423785395                       # Cumulative time (in ticks) in various power states
system.ruby.network.netifs01.pwrStateResidencyTicks::UNDEFINED 1727423785395                       # Cumulative time (in ticks) in various power states
system.ruby.network.netifs02.pwrStateResidencyTicks::UNDEFINED 1727423785395                       # Cumulative time (in ticks) in various power states
system.ruby.network.netifs03.pwrStateResidencyTicks::UNDEFINED 1727423785395                       # Cumulative time (in ticks) in various power states
system.ruby.network.netifs04.pwrStateResidencyTicks::UNDEFINED 1727423785395                       # Cumulative time (in ticks) in various power states
system.ruby.network.netifs05.pwrStateResidencyTicks::UNDEFINED 1727423785395                       # Cumulative time (in ticks) in various power states
system.ruby.network.netifs06.pwrStateResidencyTicks::UNDEFINED 1727423785395                       # Cumulative time (in ticks) in various power states
system.ruby.network.netifs07.pwrStateResidencyTicks::UNDEFINED 1727423785395                       # Cumulative time (in ticks) in various power states
system.ruby.network.netifs08.pwrStateResidencyTicks::UNDEFINED 1727423785395                       # Cumulative time (in ticks) in various power states
system.ruby.network.netifs09.pwrStateResidencyTicks::UNDEFINED 1727423785395                       # Cumulative time (in ticks) in various power states
system.ruby.network.netifs10.pwrStateResidencyTicks::UNDEFINED 1727423785395                       # Cumulative time (in ticks) in various power states
system.ruby.network.netifs11.pwrStateResidencyTicks::UNDEFINED 1727423785395                       # Cumulative time (in ticks) in various power states
system.ruby.network.netifs12.pwrStateResidencyTicks::UNDEFINED 1727423785395                       # Cumulative time (in ticks) in various power states
system.ruby.network.netifs13.pwrStateResidencyTicks::UNDEFINED 1727423785395                       # Cumulative time (in ticks) in various power states
system.ruby.network.netifs14.pwrStateResidencyTicks::UNDEFINED 1727423785395                       # Cumulative time (in ticks) in various power states
system.ruby.network.netifs15.pwrStateResidencyTicks::UNDEFINED 1727423785395                       # Cumulative time (in ticks) in various power states
system.ruby.network.netifs16.pwrStateResidencyTicks::UNDEFINED 1727423785395                       # Cumulative time (in ticks) in various power states
system.ruby.network.netifs17.pwrStateResidencyTicks::UNDEFINED 1727423785395                       # Cumulative time (in ticks) in various power states
system.ruby.network.netifs18.pwrStateResidencyTicks::UNDEFINED 1727423785395                       # Cumulative time (in ticks) in various power states
system.ruby.network.netifs19.pwrStateResidencyTicks::UNDEFINED 1727423785395                       # Cumulative time (in ticks) in various power states
system.ruby.network.netifs20.pwrStateResidencyTicks::UNDEFINED 1727423785395                       # Cumulative time (in ticks) in various power states
system.ruby.network.netifs21.pwrStateResidencyTicks::UNDEFINED 1727423785395                       # Cumulative time (in ticks) in various power states
system.ruby.network.netifs22.pwrStateResidencyTicks::UNDEFINED 1727423785395                       # Cumulative time (in ticks) in various power states
system.ruby.network.netifs23.pwrStateResidencyTicks::UNDEFINED 1727423785395                       # Cumulative time (in ticks) in various power states
system.ruby.network.netifs24.pwrStateResidencyTicks::UNDEFINED 1727423785395                       # Cumulative time (in ticks) in various power states
system.ruby.network.netifs25.pwrStateResidencyTicks::UNDEFINED 1727423785395                       # Cumulative time (in ticks) in various power states
system.ruby.network.netifs26.pwrStateResidencyTicks::UNDEFINED 1727423785395                       # Cumulative time (in ticks) in various power states
system.ruby.network.netifs27.pwrStateResidencyTicks::UNDEFINED 1727423785395                       # Cumulative time (in ticks) in various power states
system.ruby.network.netifs28.pwrStateResidencyTicks::UNDEFINED 1727423785395                       # Cumulative time (in ticks) in various power states
system.ruby.network.netifs29.pwrStateResidencyTicks::UNDEFINED 1727423785395                       # Cumulative time (in ticks) in various power states
system.ruby.network.netifs30.pwrStateResidencyTicks::UNDEFINED 1727423785395                       # Cumulative time (in ticks) in various power states
system.ruby.network.netifs31.pwrStateResidencyTicks::UNDEFINED 1727423785395                       # Cumulative time (in ticks) in various power states
system.ruby.network.netifs32.pwrStateResidencyTicks::UNDEFINED 1727423785395                       # Cumulative time (in ticks) in various power states
system.ruby.network.packet_network_latency |  1680876626                       |   156427942                       |  1460768179                      
system.ruby.network.packet_queueing_latency |   186635917                       |    13552566                       |   978421964                      
system.ruby.network.packets_injected     |   135032503     41.88%     41.88% |    13552566      4.20%     46.08% |   173836676     53.92%    100.00%
system.ruby.network.packets_injected::total    322421745                      
system.ruby.network.packets_received     |   135032502     41.88%     41.88% |    13552566      4.20%     46.08% |   173836676     53.92%    100.00%
system.ruby.network.packets_received::total    322421744                      
system.ruby.network.pwrStateResidencyTicks::UNDEFINED 1727423785395                       # Cumulative time (in ticks) in various power states
system.ruby.network.routers00.buffer_reads   1406354050                      
system.ruby.network.routers00.buffer_writes   1406354050                      
system.ruby.network.routers00.crossbar_activity    703181557                      
system.ruby.network.routers00.pwrStateResidencyTicks::UNDEFINED 1727423785395                       # Cumulative time (in ticks) in various power states
system.ruby.network.routers00.sw_input_arbiter_activity    709507667                      
system.ruby.network.routers00.sw_output_arbiter_activity    703181557                      
system.ruby.network.routers01.buffer_reads    224880308                      
system.ruby.network.routers01.buffer_writes    224880308                      
system.ruby.network.routers01.crossbar_activity    112440924                      
system.ruby.network.routers01.pwrStateResidencyTicks::UNDEFINED 1727423785395                       # Cumulative time (in ticks) in various power states
system.ruby.network.routers01.sw_input_arbiter_activity    112613054                      
system.ruby.network.routers01.sw_output_arbiter_activity    112440924                      
system.ruby.network.routers02.buffer_reads     91531255                      
system.ruby.network.routers02.buffer_writes     91531255                      
system.ruby.network.routers02.crossbar_activity     45765968                      
system.ruby.network.routers02.pwrStateResidencyTicks::UNDEFINED 1727423785395                       # Cumulative time (in ticks) in various power states
system.ruby.network.routers02.sw_input_arbiter_activity     45782489                      
system.ruby.network.routers02.sw_output_arbiter_activity     45765968                      
system.ruby.network.routers03.buffer_reads     91006391                      
system.ruby.network.routers03.buffer_writes     91006391                      
system.ruby.network.routers03.crossbar_activity     45503458                      
system.ruby.network.routers03.pwrStateResidencyTicks::UNDEFINED 1727423785395                       # Cumulative time (in ticks) in various power states
system.ruby.network.routers03.sw_input_arbiter_activity     45522523                      
system.ruby.network.routers03.sw_output_arbiter_activity     45503458                      
system.ruby.network.routers04.buffer_reads    179800276                      
system.ruby.network.routers04.buffer_writes    179800276                      
system.ruby.network.routers04.crossbar_activity     89900667                      
system.ruby.network.routers04.pwrStateResidencyTicks::UNDEFINED 1727423785395                       # Cumulative time (in ticks) in various power states
system.ruby.network.routers04.sw_input_arbiter_activity     90027425                      
system.ruby.network.routers04.sw_output_arbiter_activity     89900667                      
system.ruby.network.routers05.buffer_reads     90923121                      
system.ruby.network.routers05.buffer_writes     90923121                      
system.ruby.network.routers05.crossbar_activity     45461842                      
system.ruby.network.routers05.pwrStateResidencyTicks::UNDEFINED 1727423785395                       # Cumulative time (in ticks) in various power states
system.ruby.network.routers05.sw_input_arbiter_activity     45479930                      
system.ruby.network.routers05.sw_output_arbiter_activity     45461842                      
system.ruby.network.routers06.buffer_reads     90812386                      
system.ruby.network.routers06.buffer_writes     90812386                      
system.ruby.network.routers06.crossbar_activity     45406478                      
system.ruby.network.routers06.pwrStateResidencyTicks::UNDEFINED 1727423785395                       # Cumulative time (in ticks) in various power states
system.ruby.network.routers06.sw_input_arbiter_activity     45424209                      
system.ruby.network.routers06.sw_output_arbiter_activity     45406478                      
system.ruby.network.routers07.buffer_reads    223601978                      
system.ruby.network.routers07.buffer_writes    223601978                      
system.ruby.network.routers07.crossbar_activity    111801654                      
system.ruby.network.routers07.pwrStateResidencyTicks::UNDEFINED 1727423785395                       # Cumulative time (in ticks) in various power states
system.ruby.network.routers07.sw_input_arbiter_activity    111974680                      
system.ruby.network.routers07.sw_output_arbiter_activity    111801654                      
system.ruby.network.routers08.buffer_reads    179160747                      
system.ruby.network.routers08.buffer_writes    179160747                      
system.ruby.network.routers08.crossbar_activity     89580937                      
system.ruby.network.routers08.pwrStateResidencyTicks::UNDEFINED 1727423785395                       # Cumulative time (in ticks) in various power states
system.ruby.network.routers08.sw_input_arbiter_activity     89693321                      
system.ruby.network.routers08.sw_output_arbiter_activity     89580937                      
system.ruby.network.routers09.buffer_reads     90804839                      
system.ruby.network.routers09.buffer_writes     90804839                      
system.ruby.network.routers09.crossbar_activity     45402710                      
system.ruby.network.routers09.pwrStateResidencyTicks::UNDEFINED 1727423785395                       # Cumulative time (in ticks) in various power states
system.ruby.network.routers09.sw_input_arbiter_activity     45417241                      
system.ruby.network.routers09.sw_output_arbiter_activity     45402710                      
system.ruby.network.routers10.buffer_reads     90816229                      
system.ruby.network.routers10.buffer_writes     90816229                      
system.ruby.network.routers10.crossbar_activity     45408412                      
system.ruby.network.routers10.pwrStateResidencyTicks::UNDEFINED 1727423785395                       # Cumulative time (in ticks) in various power states
system.ruby.network.routers10.sw_input_arbiter_activity     45426905                      
system.ruby.network.routers10.sw_output_arbiter_activity     45408412                      
system.ruby.network.routers11.buffer_reads    223773378                      
system.ruby.network.routers11.buffer_writes    223773378                      
system.ruby.network.routers11.crossbar_activity    111887432                      
system.ruby.network.routers11.pwrStateResidencyTicks::UNDEFINED 1727423785395                       # Cumulative time (in ticks) in various power states
system.ruby.network.routers11.sw_input_arbiter_activity    112051806                      
system.ruby.network.routers11.sw_output_arbiter_activity    111887432                      
system.ruby.network.routers12.buffer_reads    710420256                      
system.ruby.network.routers12.buffer_writes    710420256                      
system.ruby.network.routers12.crossbar_activity    355212387                      
system.ruby.network.routers12.pwrStateResidencyTicks::UNDEFINED 1727423785395                       # Cumulative time (in ticks) in various power states
system.ruby.network.routers12.sw_input_arbiter_activity    356998593                      
system.ruby.network.routers12.sw_output_arbiter_activity    355212387                      
system.ruby.network.routers13.buffer_reads    223574652                      
system.ruby.network.routers13.buffer_writes    223574652                      
system.ruby.network.routers13.crossbar_activity    111788004                      
system.ruby.network.routers13.pwrStateResidencyTicks::UNDEFINED 1727423785395                       # Cumulative time (in ticks) in various power states
system.ruby.network.routers13.sw_input_arbiter_activity    111972456                      
system.ruby.network.routers13.sw_output_arbiter_activity    111788004                      
system.ruby.network.routers14.buffer_reads     90872032                      
system.ruby.network.routers14.buffer_writes     90872032                      
system.ruby.network.routers14.crossbar_activity     45436282                      
system.ruby.network.routers14.pwrStateResidencyTicks::UNDEFINED 1727423785395                       # Cumulative time (in ticks) in various power states
system.ruby.network.routers14.sw_input_arbiter_activity     45453394                      
system.ruby.network.routers14.sw_output_arbiter_activity     45436282                      
system.ruby.network.routers15.buffer_reads     90546780                      
system.ruby.network.routers15.buffer_writes     90546780                      
system.ruby.network.routers15.crossbar_activity     45273654                      
system.ruby.network.routers15.pwrStateResidencyTicks::UNDEFINED 1727423785395                       # Cumulative time (in ticks) in various power states
system.ruby.network.routers15.sw_input_arbiter_activity     45288616                      
system.ruby.network.routers15.sw_output_arbiter_activity     45273654                      
system.ruby.outstanding_req_hist_seqr::bucket_size            2                      
system.ruby.outstanding_req_hist_seqr::max_bucket           19                      
system.ruby.outstanding_req_hist_seqr::samples   1109549095                      
system.ruby.outstanding_req_hist_seqr::mean     1.638050                      
system.ruby.outstanding_req_hist_seqr::gmean     1.494834                      
system.ruby.outstanding_req_hist_seqr::stdev     0.730035                      
system.ruby.outstanding_req_hist_seqr    |   549045217     49.48%     49.48% |   544213311     49.05%     98.53% |    16123483      1.45%     99.98% |      148454      0.01%    100.00% |       12264      0.00%    100.00% |        3778      0.00%    100.00% |        1596      0.00%    100.00% |         750      0.00%    100.00% |         242      0.00%    100.00% |           0      0.00%    100.00%
system.ruby.outstanding_req_hist_seqr::total   1109549095                      
system.ruby.pwrStateResidencyTicks::UNDEFINED 1727423785395                       # Cumulative time (in ticks) in various power states
system.sys_port_proxy.pwrStateResidencyTicks::UNDEFINED 1727423785395                       # Cumulative time (in ticks) in various power states
system.voltage_domain.voltage                       1                       # Voltage in Volts

---------- End Simulation Statistics   ----------
